                                  MODFLOW-2000
      U.S. GEOLOGICAL SURVEY MODULAR FINITE-DIFFERENCE GROUND-WATER FLOW MODEL
                           VERSION 1.17.02 02/12/2007


 This model run combines GLOBAL and LIST output into this single file.

 GLOBAL LISTING FILE: l1a2k_rev.lst
                         UNIT    1

 OPENING ../data/l1a2k.ba6
 FILE TYPE:BAS6   UNIT    7   STATUS:OLD    
 FORMAT:FORMATTED              ACCESS:SEQUENTIAL          

 OPENING ../data/l1a2k.bc6
 FILE TYPE:BCF6   UNIT   10   STATUS:OLD    
 FORMAT:FORMATTED              ACCESS:SEQUENTIAL          

 OPENING ../data/l1a2k.evt
 FILE TYPE:EVT   UNIT   11   STATUS:OLD    
 FORMAT:FORMATTED              ACCESS:SEQUENTIAL          

 OPENING ../data/l1a2k.rch
 FILE TYPE:RCH   UNIT   12   STATUS:OLD    
 FORMAT:FORMATTED              ACCESS:SEQUENTIAL          

 OPENING ../data/l1a2k.sip
 FILE TYPE:SIP   UNIT   13   STATUS:OLD    
 FORMAT:FORMATTED              ACCESS:SEQUENTIAL          

 OPENING ../data/l1a2k.oc
 FILE TYPE:OC   UNIT   17   STATUS:OLD    
 FORMAT:FORMATTED              ACCESS:SEQUENTIAL          

 OPENING ../data/l1a2k.lak
 FILE TYPE:LAK   UNIT   16   STATUS:OLD    
 FORMAT:FORMATTED              ACCESS:SEQUENTIAL          

 OPENING ../data/l1a2k.dis
 FILE TYPE:DIS   UNIT   14   STATUS:OLD    
 FORMAT:FORMATTED              ACCESS:SEQUENTIAL          

 OPENING ../data/l1a2k.fhb
 FILE TYPE:FHB   UNIT   21   STATUS:OLD    
 FORMAT:FORMATTED              ACCESS:SEQUENTIAL          

 OPENING ../data/l1a2k.gag
 FILE TYPE:GAGE   UNIT   33   STATUS:OLD    
 FORMAT:FORMATTED              ACCESS:SEQUENTIAL          

 OPENING ../data/l1a2k_rev.got
 FILE TYPE:DATA   UNIT   37   STATUS:UNKNOWN
 FORMAT:FORMATTED              ACCESS:SEQUENTIAL          


 DISCRETIZATION INPUT DATA READ FROM UNIT   14
    5 LAYERS        17 ROWS        17 COLUMNS
    1 STRESS PERIOD(S) IN SIMULATION
 MODEL TIME UNIT IS DAYS
 MODEL LENGTH UNIT IS UNDEFINED
 THE GROUND-WATER TRANSPORT PROCESS IS INACTIVE

 THE OBSERVATION PROCESS IS INACTIVE
 THE SENSITIVITY PROCESS IS INACTIVE
 THE PARAMETER-ESTIMATION PROCESS IS INACTIVE

 MODE: FORWARD

  Confining bed flag for each layer:
   0   0   0   0   0

      13039  ELEMENTS OF GX ARRAY USED OUT OF      13039
       1445  ELEMENTS OF GZ ARRAY USED OUT OF       1445
       1445  ELEMENTS OF IG ARRAY USED OUT OF       1445



                               DELR
 READING ON UNIT   14 WITH FORMAT: (10F13.0)           
   250.00       1000.0       1000.0       1000.0       1000.0       1000.0       500.00       500.00       500.00       500.00    
   500.00       1000.0       1000.0       1000.0       1000.0       1000.0       250.00    



                               DELC
 READING ON UNIT   14 WITH FORMAT: (10F13.0)           
   250.00       1000.0       1000.0       1000.0       1000.0       1000.0       500.00       500.00       500.00       500.00    
   500.00       1000.0       1000.0       1000.0       1000.0       1000.0       250.00    

 TOP ELEVATION OF LAYER 1 =   500.000    

   MODEL LAYER BOTTOM EL. =   107.000     FOR LAYER   1

   MODEL LAYER BOTTOM EL. =   97.0000     FOR LAYER   2

   MODEL LAYER BOTTOM EL. =   87.0000     FOR LAYER   3

   MODEL LAYER BOTTOM EL. =   77.0000     FOR LAYER   4

   MODEL LAYER BOTTOM EL. =   67.0000     FOR LAYER   5


 STRESS PERIOD     LENGTH       TIME STEPS     MULTIPLIER FOR DELT    SS FLAG
 ----------------------------------------------------------------------------
        1         5000.000        100                    1.020         TR

 TRANSIENT SIMULATION




 SIP5 -- STRONGLY IMPLICIT PROCEDURE SOLUTION PACKAGE
                    VERSION 5, 9/1/93 INPUT READ FROM UNIT   13
 MAXIMUM OF 500 ITERATIONS ALLOWED FOR CLOSURE
  5 ITERATION PARAMETERS
       6285 ELEMENTS IN X ARRAY ARE USED BY SIP
       1500 ELEMENTS IN IX ARRAY ARE USED BY SIP

       6285  ELEMENTS OF X ARRAY USED OUT OF       6285
          0  ELEMENTS OF Z ARRAY USED OUT OF          1
       1500  ELEMENTS OF IX ARRAY USED OUT OF       1500
          0  ELEMENTS OF XHS ARRAY USED OUT OF          1



          SOLUTION BY THE STRONGLY IMPLICIT PROCEDURE
          -------------------------------------------
 MAXIMUM ITERATIONS ALLOWED FOR CLOSURE =      500
                 ACCELERATION PARAMETER =     1.0000    
      HEAD CHANGE CRITERION FOR CLOSURE =    0.10000E-03
      SIP HEAD CHANGE PRINTOUT INTERVAL =        1

     CALCULATE ITERATION PARAMETERS FROM MODEL CALCULATED WSEED
 
 #Hypothetical simulator of lake and surficial aquifer interaction. ------------ 
 #Shows convergence to equilibrium in transient mode.                            
    5 LAYERS        17 ROWS        17 COLUMNS
    1 STRESS PERIOD(S) IN SIMULATION

 BAS6 -- BASIC PACKAGE, VERSION 6, 1/11/2000 INPUT READ FROM UNIT    7
         25 ELEMENTS IN IR ARRAY ARE USED BY BAS

 BCF6 -- BLOCK-CENTERED FLOW PACKAGE, VERSION 6, 1/11/2000
         INPUT READ FROM UNIT 10
 TRANSIENT SIMULATION
 HEAD AT CELLS THAT CONVERT TO DRY=   0.0000    
 WETTING CAPABILITY IS ACTIVE
 WETTING FACTOR=   1.00000     WETTING ITERATION INTERVAL=   1
 FLAG THAT SPECIFIES THE EQUATION TO USE FOR HEAD AT WETTED CELLS=   0
      LAYER  LAYER-TYPE CODE     INTERBLOCK T
      --------------------------------------------
         1            1          0 -- HARMONIC    
         2            3          0 -- HARMONIC    
         3            3          0 -- HARMONIC    
         4            3          0 -- HARMONIC    
         5            3          0 -- HARMONIC    
       6652 ELEMENTS IN RX ARRAY ARE USED BY BCF

 EVT6 -- EVAPOTRANSPIRATION PACKAGE, VERSION 6, 12/14/2000
         INPUT READ FROM UNIT   11
 No named parameters
 OPTION 3 -- EVAPOTRANSPIRATION FROM HIGHEST ACTIVE NODE IN EACH VERTICAL COLUMN
        867 ELEMENTS IN RX ARRAY ARE USED BY EVT
        289 ELEMENTS IN IR ARRAY ARE USED BY EVT

 RCH6 -- RECHARGE PACKAGE, VERSION 6, 1/11/2000 INPUT READ FROM UNIT   12
 No named parameters
 OPTION 3 -- RECHARGE TO HIGHEST ACTIVE NODE IN EACH VERTICAL COLUMN
        289 ELEMENTS IN RX ARRAY ARE USED BY RCH
        289 ELEMENTS IN IR ARRAY ARE USED BY RCH
0FHB1 -- SPECIFIED FLOW PACKAGE, VERSION 1,12/3/96 INPUT READ FROM 21
  SPECIFIED FLOW AND HEAD VALUES WILL REMAIN CONSTANT FOR ENTIRE SIMULATION.
 FLOW WILL BE SPECIFIED AT A TOTAL OF    0 CELLS.
 HEAD WILL BE SPECIFIED AT A TOTAL OF  320 CELLS.
 FHB STEADY-STATE OPTION FLAG WILL BE IGNORED,
 AT LEAST ONE STRESS PERIOD IS TRANSIENT.
  0 AUXILIARY VARIABLES FOR SPECIFIED-FLOW CELLS WILL
  BE DEFINED BY FHB FOR USE BY OTHER PACKAGES.
  0 AUXILIARY VARIABLES FOR SPECIFIED-HEAD CELLS WILL
  BE DEFINED BY FHB FOR USE BY OTHER PACKAGES.
      321 ELEMENTS IN RX ARRAY ARE USED FOR FHB1
     1280 ELEMENTS IN IR ARRAY ARE USED FOR FHB1

 LAK3 -- LAKE PACKAGE, VERSION 3, 5/20/2006 INPUT READ FROM UNIT 16
 SPACE ALLOCATION FOR    722 GRID CELL FACES ADJACENT TO LAKES
 MAXIMUM NUMBER OF LAKES IS  1 FOR THIS SIMULATION
 CELL-BY-CELL SEEPAGES WILL NOT BE PRINTED OR SAVED

 THETA =  0.500
 THETA IS THE TIME WEIGHTING FACTOR FOR COMPUTING LAKE STAGE DURING TRANSIENT MODFLOW TIME STEPS AND ITS DEFINITION HAS BEEN MODIFIED.
 THETA CANNOT BE LESS THAN 0.5 NOR GREATER THAN 1.0 AND VALUES OUTSIDE THIS RANGE ARE AUTOMATICALLY RESET TO 0.5 AND 1.0, 'RESPECTIVELY.
 A THETA OF 0.5 REPRESENTS THE AVERAGE LAKE STAGE DURING A TIME STEP.
 A THETA OF 1.0 REPRESENTS THE LAKE STAGE AT THE END OF THE TIME STEP.




 LAKE PACKAGE HAS BEEN MODIFIED TO ITERATIVELY SOLVE FOR LAKE STAGE DURING TRANSIENT STRESS PERIODS:
 MAXIMUM NUMBER OF ITERATIONS (NSSITR) =   100
 CLOSURE CRITERIA FOR LAKE STAGE (SSCNCR) = 1.000000E-04
 DEFAULT VALUES FOR TRANSIENT ONLY SIMULATIONS ARE: NSSITR = 100 AND SSCNCR = 0.0001
 VALUES OTHER THAN DEFAULT CAN BE READ BY SPECIFYING A THETA LESS THAN ZERO THEN ADDING NSSITR AND SSCNCR PER ORIGINAL INSTRUCTIONS.
 NEGATIVE THETA MUST BE LESS THAN ZERO BUT NOT MORE THAN ONE. THETA IS CONVERTED TO A POSITIVE VALUE.
 MINIMUM AND MAXIMUM LAKE STAGES FOR TRANSIENT SIMULATIONS ARE SET TO BOTTOM AND TOP ELEVATIONS USED TO COMPUTE LAKE VOLUME, RESPECTIVELY.


       3264 ELEMENTS IN RX ARRAY ARE USED BY LAK
        604 ELEMENTS IN RZ ARRAY ARE USED BY LAK
       6515 ELEMENTS IN RZ ARRAY ARE USED BY LAK
          0 ELEMENTS IN RX ARRAY ARE USED BY GAGE
         11 ELEMENTS IN IR ARRAY ARE USED BY GAGE

      11394  ELEMENTS OF RX ARRAY USED OUT OF      11394
        604  ELEMENTS OF RZ ARRAY USED OUT OF        604
       8406  ELEMENTS OF IR ARRAY USED OUT OF       8406
1
 #Hypothetical simulator of lake and surficial aquifer interaction. ------------ 
 #Shows convergence to equilibrium in transient mode.                            



                     BOUNDARY ARRAY FOR LAYER   1
 READING ON UNIT    7 WITH FORMAT: (20I4)              

        1   2   3   4   5   6   7   8   9  10  11  12  13  14  15  16  17
 ........................................................................
   1   -1  -1  -1  -1  -1  -1  -1  -1  -1  -1  -1  -1  -1  -1  -1  -1  -1
   2   -1   1   1   1   1   1   1   1   1   1   1   1   1   1   1   1  -1
   3   -1   1   1   1   1   1   1   1   1   1   1   1   1   1   1   1  -1
   4   -1   1   1   1   1   1   1   1   1   1   1   1   1   1   1   1  -1
   5   -1   1   1   1   1   1   1   1   1   1   1   1   1   1   1   1  -1
   6   -1   1   1   1   1   1   1   1   1   1   1   1   1   1   1   1  -1
   7   -1   1   1   1   1   1   0   0   0   0   0   1   1   1   1   1  -1
   8   -1   1   1   1   1   1   0   0   0   0   0   1   1   1   1   1  -1
   9   -1   1   1   1   1   1   0   0   0   0   0   1   1   1   1   1  -1
  10   -1   1   1   1   1   1   0   0   0   0   0   1   1   1   1   1  -1
  11   -1   1   1   1   1   1   0   0   0   0   0   1   1   1   1   1  -1
  12   -1   1   1   1   1   1   1   1   1   1   1   1   1   1   1   1  -1
  13   -1   1   1   1   1   1   1   1   1   1   1   1   1   1   1   1  -1
  14   -1   1   1   1   1   1   1   1   1   1   1   1   1   1   1   1  -1
  15   -1   1   1   1   1   1   1   1   1   1   1   1   1   1   1   1  -1
  16   -1   1   1   1   1   1   1   1   1   1   1   1   1   1   1   1  -1
  17   -1  -1  -1  -1  -1  -1  -1  -1  -1  -1  -1  -1  -1  -1  -1  -1  -1



                     BOUNDARY ARRAY FOR LAYER   2
 READING ON UNIT    7 WITH FORMAT: (20I4)              

        1   2   3   4   5   6   7   8   9  10  11  12  13  14  15  16  17
 ........................................................................
   1   -1  -1  -1  -1  -1  -1  -1  -1  -1  -1  -1  -1  -1  -1  -1  -1  -1
   2   -1   1   1   1   1   1   1   1   1   1   1   1   1   1   1   1  -1
   3   -1   1   1   1   1   1   1   1   1   1   1   1   1   1   1   1  -1
   4   -1   1   1   1   1   1   1   1   1   1   1   1   1   1   1   1  -1
   5   -1   1   1   1   1   1   1   1   1   1   1   1   1   1   1   1  -1
   6   -1   1   1   1   1   1   1   1   1   1   1   1   1   1   1   1  -1
   7   -1   1   1   1   1   1   1   1   1   1   1   1   1   1   1   1  -1
   8   -1   1   1   1   1   1   1   0   0   0   1   1   1   1   1   1  -1
   9   -1   1   1   1   1   1   1   0   0   0   1   1   1   1   1   1  -1
  10   -1   1   1   1   1   1   1   0   0   0   1   1   1   1   1   1  -1
  11   -1   1   1   1   1   1   1   1   1   1   1   1   1   1   1   1  -1
  12   -1   1   1   1   1   1   1   1   1   1   1   1   1   1   1   1  -1
  13   -1   1   1   1   1   1   1   1   1   1   1   1   1   1   1   1  -1
  14   -1   1   1   1   1   1   1   1   1   1   1   1   1   1   1   1  -1
  15   -1   1   1   1   1   1   1   1   1   1   1   1   1   1   1   1  -1
  16   -1   1   1   1   1   1   1   1   1   1   1   1   1   1   1   1  -1
  17   -1  -1  -1  -1  -1  -1  -1  -1  -1  -1  -1  -1  -1  -1  -1  -1  -1



                     BOUNDARY ARRAY FOR LAYER   3
 READING ON UNIT    7 WITH FORMAT: (20I4)              

        1   2   3   4   5   6   7   8   9  10  11  12  13  14  15  16  17
 ........................................................................
   1   -1  -1  -1  -1  -1  -1  -1  -1  -1  -1  -1  -1  -1  -1  -1  -1  -1
   2   -1   1   1   1   1   1   1   1   1   1   1   1   1   1   1   1  -1
   3   -1   1   1   1   1   1   1   1   1   1   1   1   1   1   1   1  -1
   4   -1   1   1   1   1   1   1   1   1   1   1   1   1   1   1   1  -1
   5   -1   1   1   1   1   1   1   1   1   1   1   1   1   1   1   1  -1
   6   -1   1   1   1   1   1   1   1   1   1   1   1   1   1   1   1  -1
   7   -1   1   1   1   1   1   1   1   1   1   1   1   1   1   1   1  -1
   8   -1   1   1   1   1   1   1   1   1   1   1   1   1   1   1   1  -1
   9   -1   1   1   1   1   1   1   1   1   1   1   1   1   1   1   1  -1
  10   -1   1   1   1   1   1   1   1   1   1   1   1   1   1   1   1  -1
  11   -1   1   1   1   1   1   1   1   1   1   1   1   1   1   1   1  -1
  12   -1   1   1   1   1   1   1   1   1   1   1   1   1   1   1   1  -1
  13   -1   1   1   1   1   1   1   1   1   1   1   1   1   1   1   1  -1
  14   -1   1   1   1   1   1   1   1   1   1   1   1   1   1   1   1  -1
  15   -1   1   1   1   1   1   1   1   1   1   1   1   1   1   1   1  -1
  16   -1   1   1   1   1   1   1   1   1   1   1   1   1   1   1   1  -1
  17   -1  -1  -1  -1  -1  -1  -1  -1  -1  -1  -1  -1  -1  -1  -1  -1  -1



                     BOUNDARY ARRAY FOR LAYER   4
 READING ON UNIT    7 WITH FORMAT: (20I4)              

        1   2   3   4   5   6   7   8   9  10  11  12  13  14  15  16  17
 ........................................................................
   1   -1  -1  -1  -1  -1  -1  -1  -1  -1  -1  -1  -1  -1  -1  -1  -1  -1
   2   -1   1   1   1   1   1   1   1   1   1   1   1   1   1   1   1  -1
   3   -1   1   1   1   1   1   1   1   1   1   1   1   1   1   1   1  -1
   4   -1   1   1   1   1   1   1   1   1   1   1   1   1   1   1   1  -1
   5   -1   1   1   1   1   1   1   1   1   1   1   1   1   1   1   1  -1
   6   -1   1   1   1   1   1   1   1   1   1   1   1   1   1   1   1  -1
   7   -1   1   1   1   1   1   1   1   1   1   1   1   1   1   1   1  -1
   8   -1   1   1   1   1   1   1   1   1   1   1   1   1   1   1   1  -1
   9   -1   1   1   1   1   1   1   1   1   1   1   1   1   1   1   1  -1
  10   -1   1   1   1   1   1   1   1   1   1   1   1   1   1   1   1  -1
  11   -1   1   1   1   1   1   1   1   1   1   1   1   1   1   1   1  -1
  12   -1   1   1   1   1   1   1   1   1   1   1   1   1   1   1   1  -1
  13   -1   1   1   1   1   1   1   1   1   1   1   1   1   1   1   1  -1
  14   -1   1   1   1   1   1   1   1   1   1   1   1   1   1   1   1  -1
  15   -1   1   1   1   1   1   1   1   1   1   1   1   1   1   1   1  -1
  16   -1   1   1   1   1   1   1   1   1   1   1   1   1   1   1   1  -1
  17   -1  -1  -1  -1  -1  -1  -1  -1  -1  -1  -1  -1  -1  -1  -1  -1  -1



                     BOUNDARY ARRAY FOR LAYER   5
 READING ON UNIT    7 WITH FORMAT: (20I4)              

        1   2   3   4   5   6   7   8   9  10  11  12  13  14  15  16  17
 ........................................................................
   1   -1  -1  -1  -1  -1  -1  -1  -1  -1  -1  -1  -1  -1  -1  -1  -1  -1
   2   -1   1   1   1   1   1   1   1   1   1   1   1   1   1   1   1  -1
   3   -1   1   1   1   1   1   1   1   1   1   1   1   1   1   1   1  -1
   4   -1   1   1   1   1   1   1   1   1   1   1   1   1   1   1   1  -1
   5   -1   1   1   1   1   1   1   1   1   1   1   1   1   1   1   1  -1
   6   -1   1   1   1   1   1   1   1   1   1   1   1   1   1   1   1  -1
   7   -1   1   1   1   1   1   1   1   1   1   1   1   1   1   1   1  -1
   8   -1   1   1   1   1   1   1   1   1   1   1   1   1   1   1   1  -1
   9   -1   1   1   1   1   1   1   1   1   1   1   1   1   1   1   1  -1
  10   -1   1   1   1   1   1   1   1   1   1   1   1   1   1   1   1  -1
  11   -1   1   1   1   1   1   1   1   1   1   1   1   1   1   1   1  -1
  12   -1   1   1   1   1   1   1   1   1   1   1   1   1   1   1   1  -1
  13   -1   1   1   1   1   1   1   1   1   1   1   1   1   1   1   1  -1
  14   -1   1   1   1   1   1   1   1   1   1   1   1   1   1   1   1  -1
  15   -1   1   1   1   1   1   1   1   1   1   1   1   1   1   1   1  -1
  16   -1   1   1   1   1   1   1   1   1   1   1   1   1   1   1   1  -1
  17   -1  -1  -1  -1  -1  -1  -1  -1  -1  -1  -1  -1  -1  -1  -1  -1  -1

 AQUIFER HEAD WILL BE SET TO -999.00     AT ALL NO-FLOW NODES (IBOUND=0).

             INITIAL HEAD =   115.000     FOR LAYER   1

             INITIAL HEAD =   115.000     FOR LAYER   2

             INITIAL HEAD =   115.000     FOR LAYER   3

             INITIAL HEAD =   115.000     FOR LAYER   4

             INITIAL HEAD =   115.000     FOR LAYER   5

 OUTPUT CONTROL IS SPECIFIED EVERY TIME STEP
 HEAD PRINT FORMAT CODE IS -14    DRAWDOWN PRINT FORMAT CODE IS   9
 HEADS WILL BE SAVED ON UNIT   18    DRAWDOWNS WILL BE SAVED ON UNIT   19

 COLUMN TO ROW ANISOTROPY =   1.00000    

     PRIMARY STORAGE COEF =  0.200000     FOR LAYER   1

    HYD. COND. ALONG ROWS =   30.0000     FOR LAYER   1

 VERT HYD COND /THICKNESS =   3.00000     FOR LAYER   1



                   WETDRY PARAMETER FOR LAYER   1
 READING ON UNIT   10 WITH FORMAT: (10F13.0)           

         1     2     3     4     5     6     7     8     9    10    11    12    13    14    15    16    17
 .........................................................................................................
   1    0.0   0.0   0.0   0.0   0.0   0.0   0.0   0.0   0.0   0.0   0.0   0.0   0.0   0.0   0.0   0.0   0.0
   2    0.0  -0.2  -0.2  -0.2  -0.2  -0.2  -0.2  -0.2  -0.2  -0.2  -0.2  -0.2  -0.2  -0.2  -0.2  -0.2   0.0
   3    0.0  -0.2  -0.2  -0.2  -0.2  -0.2  -0.2  -0.2  -0.2  -0.2  -0.2  -0.2  -0.2  -0.2  -0.2  -0.2   0.0
   4    0.0  -0.2  -0.2  -0.2  -0.2  -0.2  -0.2  -0.2  -0.2  -0.2  -0.2  -0.2  -0.2  -0.2  -0.2  -0.2   0.0
   5    0.0  -0.2  -0.2  -0.2  -0.2  -0.2  -0.2  -0.2  -0.2  -0.2  -0.2  -0.2  -0.2  -0.2  -0.2  -0.2   0.0
   6    0.0  -0.2  -0.2  -0.2  -0.2  -0.2  -0.2  -0.2  -0.2  -0.2  -0.2  -0.2  -0.2  -0.2  -0.2  -0.2   0.0
   7    0.0  -0.2  -0.2  -0.2  -0.2  -0.2   0.0   0.0   0.0   0.0   0.0  -0.2  -0.2  -0.2  -0.2  -0.2   0.0
   8    0.0  -0.2  -0.2  -0.2  -0.2  -0.2   0.0   0.0   0.0   0.0   0.0  -0.2  -0.2  -0.2  -0.2  -0.2   0.0
   9    0.0  -0.2  -0.2  -0.2  -0.2  -0.2   0.0   0.0   0.0   0.0   0.0  -0.2  -0.2  -0.2  -0.2  -0.2   0.0
  10    0.0  -0.2  -0.2  -0.2  -0.2  -0.2   0.0   0.0   0.0   0.0   0.0  -0.2  -0.2  -0.2  -0.2  -0.2   0.0
  11    0.0  -0.2  -0.2  -0.2  -0.2  -0.2   0.0   0.0   0.0   0.0   0.0  -0.2  -0.2  -0.2  -0.2  -0.2   0.0
  12    0.0  -0.2  -0.2  -0.2  -0.2  -0.2  -0.2  -0.2  -0.2  -0.2  -0.2  -0.2  -0.2  -0.2  -0.2  -0.2   0.0
  13    0.0  -0.2  -0.2  -0.2  -0.2  -0.2  -0.2  -0.2  -0.2  -0.2  -0.2  -0.2  -0.2  -0.2  -0.2  -0.2   0.0
  14    0.0  -0.2  -0.2  -0.2  -0.2  -0.2  -0.2  -0.2  -0.2  -0.2  -0.2  -0.2  -0.2  -0.2  -0.2  -0.2   0.0
  15    0.0  -0.2  -0.2  -0.2  -0.2  -0.2  -0.2  -0.2  -0.2  -0.2  -0.2  -0.2  -0.2  -0.2  -0.2  -0.2   0.0
  16    0.0  -0.2  -0.2  -0.2  -0.2  -0.2  -0.2  -0.2  -0.2  -0.2  -0.2  -0.2  -0.2  -0.2  -0.2  -0.2   0.0
  17    0.0   0.0   0.0   0.0   0.0   0.0   0.0   0.0   0.0   0.0   0.0   0.0   0.0   0.0   0.0   0.0   0.0

     PRIMARY STORAGE COEF =  3.000000E-04 FOR LAYER   2

    HYD. COND. ALONG ROWS =   30.0000     FOR LAYER   2

 VERT HYD COND /THICKNESS =   3.00000     FOR LAYER   2

   SECONDARY STORAGE COEF =  0.200000     FOR LAYER   2



                   WETDRY PARAMETER FOR LAYER   2
 READING ON UNIT   10 WITH FORMAT: (10F13.0)           

         1     2     3     4     5     6     7     8     9    10    11    12    13    14    15    16    17
 .........................................................................................................
   1    0.0   0.0   0.0   0.0   0.0   0.0   0.0   0.0   0.0   0.0   0.0   0.0   0.0   0.0   0.0   0.0   0.0
   2    0.0  -0.2  -0.2  -0.2  -0.2  -0.2  -0.2  -0.2  -0.2  -0.2  -0.2  -0.2  -0.2  -0.2  -0.2  -0.2   0.0
   3    0.0  -0.2  -0.2  -0.2  -0.2  -0.2  -0.2  -0.2  -0.2  -0.2  -0.2  -0.2  -0.2  -0.2  -0.2  -0.2   0.0
   4    0.0  -0.2  -0.2  -0.2  -0.2  -0.2  -0.2  -0.2  -0.2  -0.2  -0.2  -0.2  -0.2  -0.2  -0.2  -0.2   0.0
   5    0.0  -0.2  -0.2  -0.2  -0.2  -0.2  -0.2  -0.2  -0.2  -0.2  -0.2  -0.2  -0.2  -0.2  -0.2  -0.2   0.0
   6    0.0  -0.2  -0.2  -0.2  -0.2  -0.2  -0.2  -0.2  -0.2  -0.2  -0.2  -0.2  -0.2  -0.2  -0.2  -0.2   0.0
   7    0.0  -0.2  -0.2  -0.2  -0.2  -0.2  -0.2  -0.2  -0.2  -0.2  -0.2  -0.2  -0.2  -0.2  -0.2  -0.2   0.0
   8    0.0  -0.2  -0.2  -0.2  -0.2  -0.2  -0.2   0.0   0.0   0.0  -0.2  -0.2  -0.2  -0.2  -0.2  -0.2   0.0
   9    0.0  -0.2  -0.2  -0.2  -0.2  -0.2  -0.2   0.0   0.0   0.0  -0.2  -0.2  -0.2  -0.2  -0.2  -0.2   0.0
  10    0.0  -0.2  -0.2  -0.2  -0.2  -0.2  -0.2   0.0   0.0   0.0  -0.2  -0.2  -0.2  -0.2  -0.2  -0.2   0.0
  11    0.0  -0.2  -0.2  -0.2  -0.2  -0.2  -0.2  -0.2  -0.2  -0.2  -0.2  -0.2  -0.2  -0.2  -0.2  -0.2   0.0
  12    0.0  -0.2  -0.2  -0.2  -0.2  -0.2  -0.2  -0.2  -0.2  -0.2  -0.2  -0.2  -0.2  -0.2  -0.2  -0.2   0.0
  13    0.0  -0.2  -0.2  -0.2  -0.2  -0.2  -0.2  -0.2  -0.2  -0.2  -0.2  -0.2  -0.2  -0.2  -0.2  -0.2   0.0
  14    0.0  -0.2  -0.2  -0.2  -0.2  -0.2  -0.2  -0.2  -0.2  -0.2  -0.2  -0.2  -0.2  -0.2  -0.2  -0.2   0.0
  15    0.0  -0.2  -0.2  -0.2  -0.2  -0.2  -0.2  -0.2  -0.2  -0.2  -0.2  -0.2  -0.2  -0.2  -0.2  -0.2   0.0
  16    0.0  -0.2  -0.2  -0.2  -0.2  -0.2  -0.2  -0.2  -0.2  -0.2  -0.2  -0.2  -0.2  -0.2  -0.2  -0.2   0.0
  17    0.0   0.0   0.0   0.0   0.0   0.0   0.0   0.0   0.0   0.0   0.0   0.0   0.0   0.0   0.0   0.0   0.0

     PRIMARY STORAGE COEF =  3.000000E-04 FOR LAYER   3

    HYD. COND. ALONG ROWS =   30.0000     FOR LAYER   3

 VERT HYD COND /THICKNESS =   3.00000     FOR LAYER   3

   SECONDARY STORAGE COEF =  0.200000     FOR LAYER   3



                   WETDRY PARAMETER FOR LAYER   3
 READING ON UNIT   10 WITH FORMAT: (10F13.0)           

         1     2     3     4     5     6     7     8     9    10    11    12    13    14    15    16    17
 .........................................................................................................
   1    0.0   0.0   0.0   0.0   0.0   0.0   0.0   0.0   0.0   0.0   0.0   0.0   0.0   0.0   0.0   0.0   0.0
   2    0.0  -0.2  -0.2  -0.2  -0.2  -0.2  -0.2  -0.2  -0.2  -0.2  -0.2  -0.2  -0.2  -0.2  -0.2  -0.2   0.0
   3    0.0  -0.2  -0.2  -0.2  -0.2  -0.2  -0.2  -0.2  -0.2  -0.2  -0.2  -0.2  -0.2  -0.2  -0.2  -0.2   0.0
   4    0.0  -0.2  -0.2  -0.2  -0.2  -0.2  -0.2  -0.2  -0.2  -0.2  -0.2  -0.2  -0.2  -0.2  -0.2  -0.2   0.0
   5    0.0  -0.2  -0.2  -0.2  -0.2  -0.2  -0.2  -0.2  -0.2  -0.2  -0.2  -0.2  -0.2  -0.2  -0.2  -0.2   0.0
   6    0.0  -0.2  -0.2  -0.2  -0.2  -0.2  -0.2  -0.2  -0.2  -0.2  -0.2  -0.2  -0.2  -0.2  -0.2  -0.2   0.0
   7    0.0  -0.2  -0.2  -0.2  -0.2  -0.2  -0.2  -0.2  -0.2  -0.2  -0.2  -0.2  -0.2  -0.2  -0.2  -0.2   0.0
   8    0.0  -0.2  -0.2  -0.2  -0.2  -0.2  -0.2  -0.2  -0.2  -0.2  -0.2  -0.2  -0.2  -0.2  -0.2  -0.2   0.0
   9    0.0  -0.2  -0.2  -0.2  -0.2  -0.2  -0.2  -0.2  -0.2  -0.2  -0.2  -0.2  -0.2  -0.2  -0.2  -0.2   0.0
  10    0.0  -0.2  -0.2  -0.2  -0.2  -0.2  -0.2  -0.2  -0.2  -0.2  -0.2  -0.2  -0.2  -0.2  -0.2  -0.2   0.0
  11    0.0  -0.2  -0.2  -0.2  -0.2  -0.2  -0.2  -0.2  -0.2  -0.2  -0.2  -0.2  -0.2  -0.2  -0.2  -0.2   0.0
  12    0.0  -0.2  -0.2  -0.2  -0.2  -0.2  -0.2  -0.2  -0.2  -0.2  -0.2  -0.2  -0.2  -0.2  -0.2  -0.2   0.0
  13    0.0  -0.2  -0.2  -0.2  -0.2  -0.2  -0.2  -0.2  -0.2  -0.2  -0.2  -0.2  -0.2  -0.2  -0.2  -0.2   0.0
  14    0.0  -0.2  -0.2  -0.2  -0.2  -0.2  -0.2  -0.2  -0.2  -0.2  -0.2  -0.2  -0.2  -0.2  -0.2  -0.2   0.0
  15    0.0  -0.2  -0.2  -0.2  -0.2  -0.2  -0.2  -0.2  -0.2  -0.2  -0.2  -0.2  -0.2  -0.2  -0.2  -0.2   0.0
  16    0.0  -0.2  -0.2  -0.2  -0.2  -0.2  -0.2  -0.2  -0.2  -0.2  -0.2  -0.2  -0.2  -0.2  -0.2  -0.2   0.0
  17    0.0   0.0   0.0   0.0   0.0   0.0   0.0   0.0   0.0   0.0   0.0   0.0   0.0   0.0   0.0   0.0   0.0

     PRIMARY STORAGE COEF =  3.000000E-04 FOR LAYER   4

    HYD. COND. ALONG ROWS =   30.0000     FOR LAYER   4

 VERT HYD COND /THICKNESS =   3.00000     FOR LAYER   4

   SECONDARY STORAGE COEF =  0.200000     FOR LAYER   4



                   WETDRY PARAMETER FOR LAYER   4
 READING ON UNIT   10 WITH FORMAT: (10F13.0)           

         1     2     3     4     5     6     7     8     9    10    11    12    13    14    15    16    17
 .........................................................................................................
   1    0.0   0.0   0.0   0.0   0.0   0.0   0.0   0.0   0.0   0.0   0.0   0.0   0.0   0.0   0.0   0.0   0.0
   2    0.0  -0.2  -0.2  -0.2  -0.2  -0.2  -0.2  -0.2  -0.2  -0.2  -0.2  -0.2  -0.2  -0.2  -0.2  -0.2   0.0
   3    0.0  -0.2  -0.2  -0.2  -0.2  -0.2  -0.2  -0.2  -0.2  -0.2  -0.2  -0.2  -0.2  -0.2  -0.2  -0.2   0.0
   4    0.0  -0.2  -0.2  -0.2  -0.2  -0.2  -0.2  -0.2  -0.2  -0.2  -0.2  -0.2  -0.2  -0.2  -0.2  -0.2   0.0
   5    0.0  -0.2  -0.2  -0.2  -0.2  -0.2  -0.2  -0.2  -0.2  -0.2  -0.2  -0.2  -0.2  -0.2  -0.2  -0.2   0.0
   6    0.0  -0.2  -0.2  -0.2  -0.2  -0.2  -0.2  -0.2  -0.2  -0.2  -0.2  -0.2  -0.2  -0.2  -0.2  -0.2   0.0
   7    0.0  -0.2  -0.2  -0.2  -0.2  -0.2  -0.2  -0.2  -0.2  -0.2  -0.2  -0.2  -0.2  -0.2  -0.2  -0.2   0.0
   8    0.0  -0.2  -0.2  -0.2  -0.2  -0.2  -0.2  -0.2  -0.2  -0.2  -0.2  -0.2  -0.2  -0.2  -0.2  -0.2   0.0
   9    0.0  -0.2  -0.2  -0.2  -0.2  -0.2  -0.2  -0.2  -0.2  -0.2  -0.2  -0.2  -0.2  -0.2  -0.2  -0.2   0.0
  10    0.0  -0.2  -0.2  -0.2  -0.2  -0.2  -0.2  -0.2  -0.2  -0.2  -0.2  -0.2  -0.2  -0.2  -0.2  -0.2   0.0
  11    0.0  -0.2  -0.2  -0.2  -0.2  -0.2  -0.2  -0.2  -0.2  -0.2  -0.2  -0.2  -0.2  -0.2  -0.2  -0.2   0.0
  12    0.0  -0.2  -0.2  -0.2  -0.2  -0.2  -0.2  -0.2  -0.2  -0.2  -0.2  -0.2  -0.2  -0.2  -0.2  -0.2   0.0
  13    0.0  -0.2  -0.2  -0.2  -0.2  -0.2  -0.2  -0.2  -0.2  -0.2  -0.2  -0.2  -0.2  -0.2  -0.2  -0.2   0.0
  14    0.0  -0.2  -0.2  -0.2  -0.2  -0.2  -0.2  -0.2  -0.2  -0.2  -0.2  -0.2  -0.2  -0.2  -0.2  -0.2   0.0
  15    0.0  -0.2  -0.2  -0.2  -0.2  -0.2  -0.2  -0.2  -0.2  -0.2  -0.2  -0.2  -0.2  -0.2  -0.2  -0.2   0.0
  16    0.0  -0.2  -0.2  -0.2  -0.2  -0.2  -0.2  -0.2  -0.2  -0.2  -0.2  -0.2  -0.2  -0.2  -0.2  -0.2   0.0
  17    0.0   0.0   0.0   0.0   0.0   0.0   0.0   0.0   0.0   0.0   0.0   0.0   0.0   0.0   0.0   0.0   0.0

     PRIMARY STORAGE COEF =  3.000000E-04 FOR LAYER   5

    HYD. COND. ALONG ROWS =   30.0000     FOR LAYER   5

   SECONDARY STORAGE COEF =  0.200000     FOR LAYER   5



                   WETDRY PARAMETER FOR LAYER   5
 READING ON UNIT   10 WITH FORMAT: (10F13.0)           

         1     2     3     4     5     6     7     8     9    10    11    12    13    14    15    16    17
 .........................................................................................................
   1    0.0   0.0   0.0   0.0   0.0   0.0   0.0   0.0   0.0   0.0   0.0   0.0   0.0   0.0   0.0   0.0   0.0
   2    0.0  -0.2  -0.2  -0.2  -0.2  -0.2  -0.2  -0.2  -0.2  -0.2  -0.2  -0.2  -0.2  -0.2  -0.2  -0.2   0.0
   3    0.0  -0.2  -0.2  -0.2  -0.2  -0.2  -0.2  -0.2  -0.2  -0.2  -0.2  -0.2  -0.2  -0.2  -0.2  -0.2   0.0
   4    0.0  -0.2  -0.2  -0.2  -0.2  -0.2  -0.2  -0.2  -0.2  -0.2  -0.2  -0.2  -0.2  -0.2  -0.2  -0.2   0.0
   5    0.0  -0.2  -0.2  -0.2  -0.2  -0.2  -0.2  -0.2  -0.2  -0.2  -0.2  -0.2  -0.2  -0.2  -0.2  -0.2   0.0
   6    0.0  -0.2  -0.2  -0.2  -0.2  -0.2  -0.2  -0.2  -0.2  -0.2  -0.2  -0.2  -0.2  -0.2  -0.2  -0.2   0.0
   7    0.0  -0.2  -0.2  -0.2  -0.2  -0.2  -0.2  -0.2  -0.2  -0.2  -0.2  -0.2  -0.2  -0.2  -0.2  -0.2   0.0
   8    0.0  -0.2  -0.2  -0.2  -0.2  -0.2  -0.2  -0.2  -0.2  -0.2  -0.2  -0.2  -0.2  -0.2  -0.2  -0.2   0.0
   9    0.0  -0.2  -0.2  -0.2  -0.2  -0.2  -0.2  -0.2  -0.2  -0.2  -0.2  -0.2  -0.2  -0.2  -0.2  -0.2   0.0
  10    0.0  -0.2  -0.2  -0.2  -0.2  -0.2  -0.2  -0.2  -0.2  -0.2  -0.2  -0.2  -0.2  -0.2  -0.2  -0.2   0.0
  11    0.0  -0.2  -0.2  -0.2  -0.2  -0.2  -0.2  -0.2  -0.2  -0.2  -0.2  -0.2  -0.2  -0.2  -0.2  -0.2   0.0
  12    0.0  -0.2  -0.2  -0.2  -0.2  -0.2  -0.2  -0.2  -0.2  -0.2  -0.2  -0.2  -0.2  -0.2  -0.2  -0.2   0.0
  13    0.0  -0.2  -0.2  -0.2  -0.2  -0.2  -0.2  -0.2  -0.2  -0.2  -0.2  -0.2  -0.2  -0.2  -0.2  -0.2   0.0
  14    0.0  -0.2  -0.2  -0.2  -0.2  -0.2  -0.2  -0.2  -0.2  -0.2  -0.2  -0.2  -0.2  -0.2  -0.2  -0.2   0.0
  15    0.0  -0.2  -0.2  -0.2  -0.2  -0.2  -0.2  -0.2  -0.2  -0.2  -0.2  -0.2  -0.2  -0.2  -0.2  -0.2   0.0
  16    0.0  -0.2  -0.2  -0.2  -0.2  -0.2  -0.2  -0.2  -0.2  -0.2  -0.2  -0.2  -0.2  -0.2  -0.2  -0.2   0.0
  17    0.0   0.0   0.0   0.0   0.0   0.0   0.0   0.0   0.0   0.0   0.0   0.0   0.0   0.0   0.0   0.0   0.0


     0 Evapotranspiration parameters


     0 Recharge parameters
 TIMES FOR SPECIFIED-FLOW AND HEAD VALUES WILL BE READ ON UNIT  21 AND
 MULTIPLIED BY   1.000    .
     1 TIMES FOR SPECIFYING FLOWS AND HEADS:
                       1
                 ------------
                    0.000    

 CELL INDICIES AND SPECIFIED-HEAD VALUES WILL BE READ ON UNIT  21. HEAD VALUES
 WILL BE MULTIPLIED BY   1.000    .
 LAYER  ROW  COL IAUX             HEAD VALUES
 -------------------------------
    1    1    1   64   160.0    
    1    2    1   64   160.0    
    1    3    1   64   160.0    
    1    4    1   64   160.0    
    1    5    1   64   160.0    
    1    6    1   64   160.0    
    1    7    1   64   160.0    
    1    8    1   64   160.0    
    1    9    1   64   160.0    
    1   10    1   64   160.0    
    1   11    1   64   160.0    
    1   12    1   64   160.0    
    1   13    1   64   160.0    
    1   14    1   64   160.0    
    1   15    1   64   160.0    
    1   16    1   64   160.0    
    1   17    1   64   160.0    
    1    1   17   64   140.0    
    1    2   17   64   140.0    
    1    3   17   64   140.0    
    1    4   17   64   140.0    
    1    5   17   64   140.0    
    1    6   17   64   140.0    
    1    7   17   64   140.0    
    1    8   17   64   140.0    
    1    9   17   64   140.0    
    1   10   17   64   140.0    
    1   11   17   64   140.0    
    1   12   17   64   140.0    
    1   13   17   64   140.0    
    1   14   17   64   140.0    
    1   15   17   64   140.0    
    1   16   17   64   140.0    
    1   17   17   64   140.0    
    2    1    1   64   160.0    
    2    2    1   64   160.0    
    2    3    1   64   160.0    
    2    4    1   64   160.0    
    2    5    1   64   160.0    
    2    6    1   64   160.0    
    2    7    1   64   160.0    
    2    8    1   64   160.0    
    2    9    1   64   160.0    
    2   10    1   64   160.0    
    2   11    1   64   160.0    
    2   12    1   64   160.0    
    2   13    1   64   160.0    
    2   14    1   64   160.0    
    2   15    1   64   160.0    
    2   16    1   64   160.0    
    2   17    1   64   160.0    
    2    1   17   64   140.0    
    2    2   17   64   140.0    
    2    3   17   64   140.0    
    2    4   17   64   140.0    
    2    5   17   64   140.0    
    2    6   17   64   140.0    
    2    7   17   64   140.0    
    2    8   17   64   140.0    
    2    9   17   64   140.0    
    2   10   17   64   140.0    
    2   11   17   64   140.0    
    2   12   17   64   140.0    
    2   13   17   64   140.0    
    2   14   17   64   140.0    
    2   15   17   64   140.0    
    2   16   17   64   140.0    
    2   17   17   64   140.0    
    3    1    1   64   160.0    
    3    2    1   64   160.0    
    3    3    1   64   160.0    
    3    4    1   64   160.0    
    3    5    1   64   160.0    
    3    6    1   64   160.0    
    3    7    1   64   160.0    
    3    8    1   64   160.0    
    3    9    1   64   160.0    
    3   10    1   64   160.0    
    3   11    1   64   160.0    
    3   12    1   64   160.0    
    3   13    1   64   160.0    
    3   14    1   64   160.0    
    3   15    1   64   160.0    
    3   16    1   64   160.0    
    3   17    1   64   160.0    
    3    1   17   64   140.0    
    3    2   17   64   140.0    
    3    3   17   64   140.0    
    3    4   17   64   140.0    
    3    5   17   64   140.0    
    3    6   17   64   140.0    
    3    7   17   64   140.0    
    3    8   17   64   140.0    
    3    9   17   64   140.0    
    3   10   17   64   140.0    
    3   11   17   64   140.0    
    3   12   17   64   140.0    
    3   13   17   64   140.0    
    3   14   17   64   140.0    
    3   15   17   64   140.0    
    3   16   17   64   140.0    
    3   17   17   64   140.0    
    4    1    1   64   160.0    
    4    2    1   64   160.0    
    4    3    1   64   160.0    
    4    4    1   64   160.0    
    4    5    1   64   160.0    
    4    6    1   64   160.0    
    4    7    1   64   160.0    
    4    8    1   64   160.0    
    4    9    1   64   160.0    
    4   10    1   64   160.0    
    4   11    1   64   160.0    
    4   12    1   64   160.0    
    4   13    1   64   160.0    
    4   14    1   64   160.0    
    4   15    1   64   160.0    
    4   16    1   64   160.0    
    4   17    1   64   160.0    
    4    1   17   64   140.0    
    4    2   17   64   140.0    
    4    3   17   64   140.0    
    4    4   17   64   140.0    
    4    5   17   64   140.0    
    4    6   17   64   140.0    
    4    7   17   64   140.0    
    4    8   17   64   140.0    
    4    9   17   64   140.0    
    4   10   17   64   140.0    
    4   11   17   64   140.0    
    4   12   17   64   140.0    
    4   13   17   64   140.0    
    4   14   17   64   140.0    
    4   15   17   64   140.0    
    4   16   17   64   140.0    
    4   17   17   64   140.0    
    5    1    1   64   160.0    
    5    2    1   64   160.0    
    5    3    1   64   160.0    
    5    4    1   64   160.0    
    5    5    1   64   160.0    
    5    6    1   64   160.0    
    5    7    1   64   160.0    
    5    8    1   64   160.0    
    5    9    1   64   160.0    
    5   10    1   64   160.0    
    5   11    1   64   160.0    
    5   12    1   64   160.0    
    5   13    1   64   160.0    
    5   14    1   64   160.0    
    5   15    1   64   160.0    
    5   16    1   64   160.0    
    5   17    1   64   160.0    
    5    1   17   64   140.0    
    5    2   17   64   140.0    
    5    3   17   64   140.0    
    5    4   17   64   140.0    
    5    5   17   64   140.0    
    5    6   17   64   140.0    
    5    7   17   64   140.0    
    5    8   17   64   140.0    
    5    9   17   64   140.0    
    5   10   17   64   140.0    
    5   11   17   64   140.0    
    5   12   17   64   140.0    
    5   13   17   64   140.0    
    5   14   17   64   140.0    
    5   15   17   64   140.0    
    5   16   17   64   140.0    
    5   17   17   64   140.0    
    1    1    2   64   158.9    
    1    1    3   64   157.3    
    1    1    4   64   155.8    
    1    1    5   64   154.2    
    1    1    6   64   152.7    
    1    1    7   64   151.5    
    1    1    8   64   150.8    
    1    1    9   64   150.0    
    1    1   10   64   149.2    
    1    1   11   64   148.5    
    1    1   12   64   147.3    
    1    1   13   64   145.8    
    1    1   14   64   144.2    
    1    1   15   64   142.7    
    1    1   16   64   141.1    
    1   17    2   64   158.9    
    1   17    3   64   157.3    
    1   17    4   64   155.8    
    1   17    5   64   154.2    
    1   17    6   64   152.7    
    1   17    7   64   151.5    
    1   17    8   64   150.8    
    1   17    9   64   150.0    
    1   17   10   64   149.2    
    1   17   11   64   148.5    
    1   17   12   64   147.3    
    1   17   13   64   145.8    
    1   17   14   64   144.2    
    1   17   15   64   142.7    
    1   17   16   64   141.1    
    2    1    2   64   158.9    
    2    1    3   64   157.3    
    2    1    4   64   155.8    
    2    1    5   64   154.2    
    2    1    6   64   152.7    
    2    1    7   64   151.5    
    2    1    8   64   150.8    
    2    1    9   64   150.0    
    2    1   10   64   149.2    
    2    1   11   64   148.5    
    2    1   12   64   147.3    
    2    1   13   64   145.8    
    2    1   14   64   144.2    
    2    1   15   64   142.7    
    2    1   16   64   141.1    
    2   17    2   64   158.9    
    2   17    3   64   157.3    
    2   17    4   64   155.8    
    2   17    5   64   154.2    
    2   17    6   64   152.7    
    2   17    7   64   151.5    
    2   17    8   64   150.8    
    2   17    9   64   150.0    
    2   17   10   64   149.2    
    2   17   11   64   148.5    
    2   17   12   64   147.3    
    2   17   13   64   145.8    
    2   17   14   64   144.2    
    2   17   15   64   142.7    
    2   17   16   64   141.1    
    3    1    2   64   158.9    
    3    1    3   64   157.3    
    3    1    4   64   155.8    
    3    1    5   64   154.2    
    3    1    6   64   152.7    
    3    1    7   64   151.5    
    3    1    8   64   150.8    
    3    1    9   64   150.0    
    3    1   10   64   149.2    
    3    1   11   64   148.5    
    3    1   12   64   147.3    
    3    1   13   64   145.8    
    3    1   14   64   144.2    
    3    1   15   64   142.7    
    3    1   16   64   141.1    
    3   17    2   64   158.9    
    3   17    3   64   157.3    
    3   17    4   64   155.8    
    3   17    5   64   154.2    
    3   17    6   64   152.7    
    3   17    7   64   151.5    
    3   17    8   64   150.8    
    3   17    9   64   150.0    
    3   17   10   64   149.2    
    3   17   11   64   148.5    
    3   17   12   64   147.3    
    3   17   13   64   145.8    
    3   17   14   64   144.2    
    3   17   15   64   142.7    
    3   17   16   64   141.1    
    4    1    2   64   158.9    
    4    1    3   64   157.3    
    4    1    4   64   155.8    
    4    1    5   64   154.2    
    4    1    6   64   152.7    
    4    1    7   64   151.5    
    4    1    8   64   150.8    
    4    1    9   64   150.0    
    4    1   10   64   149.2    
    4    1   11   64   148.5    
    4    1   12   64   147.3    
    4    1   13   64   145.8    
    4    1   14   64   144.2    
    4    1   15   64   142.7    
    4    1   16   64   141.1    
    4   17    2   64   158.9    
    4   17    3   64   157.3    
    4   17    4   64   155.8    
    4   17    5   64   154.2    
    4   17    6   64   152.7    
    4   17    7   64   151.5    
    4   17    8   64   150.8    
    4   17    9   64   150.0    
    4   17   10   64   149.2    
    4   17   11   64   148.5    
    4   17   12   64   147.3    
    4   17   13   64   145.8    
    4   17   14   64   144.2    
    4   17   15   64   142.7    
    4   17   16   64   141.1    
    5    1    2   64   158.9    
    5    1    3   64   157.3    
    5    1    4   64   155.8    
    5    1    5   64   154.2    
    5    1    6   64   152.7    
    5    1    7   64   151.5    
    5    1    8   64   150.8    
    5    1    9   64   150.0    
    5    1   10   64   149.2    
    5    1   11   64   148.5    
    5    1   12   64   147.3    
    5    1   13   64   145.8    
    5    1   14   64   144.2    
    5    1   15   64   142.7    
    5    1   16   64   141.1    
    5   17    2   64   158.9    
    5   17    3   64   157.3    
    5   17    4   64   155.8    
    5   17    5   64   154.2    
    5   17    6   64   152.7    
    5   17    7   64   151.5    
    5   17    8   64   150.8    
    5   17    9   64   150.0    
    5   17   10   64   149.2    
    5   17   11   64   148.5    
    5   17   12   64   147.3    
    5   17   13   64   145.8    
    5   17   14   64   144.2    
    5   17   15   64   142.7    
    5   17   16   64   141.1    



   1 GAGING STATION WAS SPECIFIED.
     (Lakes are identified by a negative value of the Lake Number)
     RECORDS WILL BE WRITTEN TO SEPARATE OUTPUT FILE REPRESENTED BY FOLLOWING UNIT NUMBER:
 Lake Gages:
  GAGE #    LAKE     UNIT   OUTTYPE
       1      -1      37




1
                            STRESS PERIOD NO.    1, LENGTH =   5000.000    
                            -----------------------------------------------

                              NUMBER OF TIME STEPS =   100

                               MULTIPLIER FOR DELT =     1.020

                            INITIAL TIME STEP SIZE =   16.01374    



                         ET SURFACE
 READING ON UNIT   11 WITH FORMAT: (19F6.1)            

         1     2     3     4     5     6     7     8     9    10    11    12    13    14    15    16    17
 .........................................................................................................
   1  160.0 159.0 157.4 155.9 154.3 152.7 151.6 150.8 150.0 149.2 148.4 147.3 145.7 144.1 142.6 141.0 140.0
   2  160.0 159.0 157.4 155.9 154.3 152.7 151.6 150.8 150.0 149.2 148.4 147.3 145.7 144.1 142.6 141.0 140.0
   3  160.0 159.0 157.4 155.9 154.3 152.7 151.6 150.8 150.0 149.2 148.4 147.3 145.7 144.1 142.6 141.0 140.0
   4  160.0 159.0 157.4 155.9 154.3 152.7 151.6 150.8 150.0 149.2 148.4 147.3 145.7 144.1 142.6 141.0 140.0
   5  160.0 159.0 157.4 155.9 154.3 152.7 151.6 150.8 150.0 149.2 148.4 147.3 145.7 144.1 142.6 141.0 140.0
   6  160.0 159.0 157.4 155.9 154.3 152.7 151.6 150.8 150.0 149.2 148.4 147.3 145.7 144.1 142.6 141.0 140.0
   7  160.0 159.0 157.4 155.9 154.3 152.7 105.0 105.0 105.0 105.0 105.0 147.3 145.7 144.1 142.6 141.0 140.0
   8  160.0 159.0 157.4 155.9 154.3 152.7 105.0  95.0  95.0  95.0 105.0 147.3 145.7 144.1 142.6 141.0 140.0
   9  160.0 159.0 157.4 155.9 154.3 152.7 105.0  95.0  95.0  95.0 105.0 147.3 145.7 144.1 142.6 141.0 140.0
  10  160.0 159.0 157.4 155.9 154.3 152.7 105.0  95.0  95.0  95.0 105.0 147.3 145.7 144.1 142.6 141.0 140.0
  11  160.0 159.0 157.4 155.9 154.3 152.7 105.0 105.0 105.0 105.0 105.0 147.3 145.7 144.1 142.6 141.0 140.0
  12  160.0 159.0 157.4 155.9 154.3 152.7 151.6 150.8 150.0 149.2 148.4 147.3 145.7 144.1 142.6 141.0 140.0
  13  160.0 159.0 157.4 155.9 154.3 152.7 151.6 150.8 150.0 149.2 148.4 147.3 145.7 144.1 142.6 141.0 140.0
  14  160.0 159.0 157.4 155.9 154.3 152.7 151.6 150.8 150.0 149.2 148.4 147.3 145.7 144.1 142.6 141.0 140.0
  15  160.0 159.0 157.4 155.9 154.3 152.7 151.6 150.8 150.0 149.2 148.4 147.3 145.7 144.1 142.6 141.0 140.0
  16  160.0 159.0 157.4 155.9 154.3 152.7 151.6 150.8 150.0 149.2 148.4 147.3 145.7 144.1 142.6 141.0 140.0
  17  160.0 159.0 157.4 155.9 154.3 152.7 151.6 150.8 150.0 149.2 148.4 147.3 145.7 144.1 142.6 141.0 140.0

  EVAPOTRANSPIRATION RATE =  1.410000E-02

         EXTINCTION DEPTH =   15.0000    

                 RECHARGE =  1.160000E-02


 LAKE PACKAGE ACTIVE:  CALCULATED LAKE STAGE FOR EACH TIME STEP WILL BE STORED IN HNEW ARRAY.

 INITIAL LAKE STAGE:  LAKE    STAGE

                        1   110.000




 If any subsequent steady-state stress periods, min. and max. stages for each lake will be read in Record 9a.





                      LAKE ID ARRAY FOR LAYER   1
 READING ON UNIT   16 WITH FORMAT: (24I3)              

        1   2   3   4   5   6   7   8   9  10  11  12  13  14  15  16  17
 ........................................................................
   1    0   0   0   0   0   0   0   0   0   0   0   0   0   0   0   0   0
   2    0   0   0   0   0   0   0   0   0   0   0   0   0   0   0   0   0
   3    0   0   0   0   0   0   0   0   0   0   0   0   0   0   0   0   0
   4    0   0   0   0   0   0   0   0   0   0   0   0   0   0   0   0   0
   5    0   0   0   0   0   0   0   0   0   0   0   0   0   0   0   0   0
   6    0   0   0   0   0   0   0   0   0   0   0   0   0   0   0   0   0
   7    0   0   0   0   0   0   1   1   1   1   1   0   0   0   0   0   0
   8    0   0   0   0   0   0   1   1   1   1   1   0   0   0   0   0   0
   9    0   0   0   0   0   0   1   1   1   1   1   0   0   0   0   0   0
  10    0   0   0   0   0   0   1   1   1   1   1   0   0   0   0   0   0
  11    0   0   0   0   0   0   1   1   1   1   1   0   0   0   0   0   0
  12    0   0   0   0   0   0   0   0   0   0   0   0   0   0   0   0   0
  13    0   0   0   0   0   0   0   0   0   0   0   0   0   0   0   0   0
  14    0   0   0   0   0   0   0   0   0   0   0   0   0   0   0   0   0
  15    0   0   0   0   0   0   0   0   0   0   0   0   0   0   0   0   0
  16    0   0   0   0   0   0   0   0   0   0   0   0   0   0   0   0   0
  17    0   0   0   0   0   0   0   0   0   0   0   0   0   0   0   0   0



                      LAKE ID ARRAY FOR LAYER   2
 READING ON UNIT   16 WITH FORMAT: (24I3)              

        1   2   3   4   5   6   7   8   9  10  11  12  13  14  15  16  17
 ........................................................................
   1    0   0   0   0   0   0   0   0   0   0   0   0   0   0   0   0   0
   2    0   0   0   0   0   0   0   0   0   0   0   0   0   0   0   0   0
   3    0   0   0   0   0   0   0   0   0   0   0   0   0   0   0   0   0
   4    0   0   0   0   0   0   0   0   0   0   0   0   0   0   0   0   0
   5    0   0   0   0   0   0   0   0   0   0   0   0   0   0   0   0   0
   6    0   0   0   0   0   0   0   0   0   0   0   0   0   0   0   0   0
   7    0   0   0   0   0   0   0   0   0   0   0   0   0   0   0   0   0
   8    0   0   0   0   0   0   0   1   1   1   0   0   0   0   0   0   0
   9    0   0   0   0   0   0   0   1   1   1   0   0   0   0   0   0   0
  10    0   0   0   0   0   0   0   1   1   1   0   0   0   0   0   0   0
  11    0   0   0   0   0   0   0   0   0   0   0   0   0   0   0   0   0
  12    0   0   0   0   0   0   0   0   0   0   0   0   0   0   0   0   0
  13    0   0   0   0   0   0   0   0   0   0   0   0   0   0   0   0   0
  14    0   0   0   0   0   0   0   0   0   0   0   0   0   0   0   0   0
  15    0   0   0   0   0   0   0   0   0   0   0   0   0   0   0   0   0
  16    0   0   0   0   0   0   0   0   0   0   0   0   0   0   0   0   0
  17    0   0   0   0   0   0   0   0   0   0   0   0   0   0   0   0   0

            LAKE ID ARRAY =              0 FOR LAYER   3

            LAKE ID ARRAY =              0 FOR LAYER   4

            LAKE ID ARRAY =              0 FOR LAYER   5





   LAKEBED LEAKANCE ARRAY =  0.100000     FOR LAYER   1

   LAKEBED LEAKANCE ARRAY =  0.100000     FOR LAYER   2

   LAKEBED LEAKANCE ARRAY =  0.100000     FOR LAYER   3

   LAKEBED LEAKANCE ARRAY =  0.100000     FOR LAYER   4

   LAKEBED LEAKANCE ARRAY =  0.100000     FOR LAYER   5

       LOCATIONS, LAKE #, INTERFACE TYPE FOR GRID CELLS ADJACENT TO LAKES:
     -----------------------------------------------------------------------
     LAYER #    ROW #    COLUMN #   LAKE #  INTERFACE TYPE  LAKEBED LEAKANCE
         1         7         6         1         2             0.10000
         1         8         6         1         2             0.10000
         1         9         6         1         2             0.10000
         1        10         6         1         2             0.10000
         1        11         6         1         2             0.10000
         1         6         7         1         3             0.10000
         2         7         7         1         6             0.10000
         2         8         7         1         6             0.10000
         2         8         7         1         2             0.10000
         2         9         7         1         6             0.10000
         2         9         7         1         2             0.10000
         2        10         7         1         6             0.10000
         2        10         7         1         2             0.10000
         2        11         7         1         6             0.10000
         1        12         7         1         4             0.10000
         1         6         8         1         3             0.10000
         2         7         8         1         6             0.10000
         2         7         8         1         3             0.10000
         3         8         8         1         6             0.10000
         3         9         8         1         6             0.10000
         3        10         8         1         6             0.10000
         2        11         8         1         6             0.10000
         2        11         8         1         4             0.10000
         1        12         8         1         4             0.10000
         1         6         9         1         3             0.10000
         2         7         9         1         6             0.10000
         2         7         9         1         3             0.10000
         3         8         9         1         6             0.10000
         3         9         9         1         6             0.10000
         3        10         9         1         6             0.10000
         2        11         9         1         6             0.10000
         2        11         9         1         4             0.10000
         1        12         9         1         4             0.10000
         1         6        10         1         3             0.10000
         2         7        10         1         6             0.10000
         2         7        10         1         3             0.10000
         3         8        10         1         6             0.10000
         3         9        10         1         6             0.10000
         3        10        10         1         6             0.10000
         2        11        10         1         6             0.10000
         2        11        10         1         4             0.10000
         1        12        10         1         4             0.10000
         1         6        11         1         3             0.10000
         2         7        11         1         6             0.10000
         2         8        11         1         6             0.10000
         2         8        11         1         1             0.10000
         2         9        11         1         6             0.10000
         2         9        11         1         1             0.10000
         2        10        11         1         6             0.10000
         2        10        11         1         1             0.10000
         2        11        11         1         6             0.10000
         1        12        11         1         4             0.10000
         1         7        12         1         1             0.10000
         1         8        12         1         1             0.10000
         1         9        12         1         1             0.10000
         1        10        12         1         1             0.10000
         1        11        12         1         1             0.10000

     NUMBER OF LAKE-AQUIFER CELL INTERFACES =    57


 STAGE/VOLUME RELATION FOR LAKE  1

       STAGE       VOLUME         AREA

   9.7000E+01   0.0000E+00   2.2500E+06
   9.7200E+01   4.4999E+05   2.2500E+06
   9.7400E+01   8.9999E+05   2.2500E+06
   9.7600E+01   1.3500E+06   2.2500E+06
   9.7800E+01   1.8000E+06   2.2500E+06
   9.8000E+01   2.2500E+06   2.2500E+06
   9.8200E+01   2.7000E+06   2.2500E+06
   9.8400E+01   3.1500E+06   2.2500E+06
   9.8600E+01   3.5999E+06   2.2500E+06
   9.8800E+01   4.0499E+06   2.2500E+06
   9.9000E+01   4.4999E+06   2.2500E+06
   9.9200E+01   4.9499E+06   2.2500E+06
   9.9400E+01   5.3999E+06   2.2500E+06
   9.9600E+01   5.8499E+06   2.2500E+06
   9.9800E+01   6.2999E+06   2.2500E+06
   1.0000E+02   6.7499E+06   2.2500E+06
   1.0020E+02   7.1999E+06   2.2500E+06
   1.0040E+02   7.6499E+06   2.2500E+06
   1.0060E+02   8.0999E+06   2.2500E+06
   1.0080E+02   8.5499E+06   2.2500E+06
   1.0100E+02   8.9999E+06   2.2500E+06
   1.0120E+02   9.4499E+06   2.2500E+06
   1.0140E+02   9.8998E+06   2.2500E+06
   1.0160E+02   1.0350E+07   2.2500E+06
   1.0180E+02   1.0800E+07   2.2500E+06
   1.0200E+02   1.1250E+07   2.2500E+06
   1.0220E+02   1.1700E+07   2.2500E+06
   1.0240E+02   1.2150E+07   2.2500E+06
   1.0260E+02   1.2600E+07   2.2500E+06
   1.0280E+02   1.3050E+07   2.2500E+06
   1.0300E+02   1.3500E+07   2.2500E+06
   1.0320E+02   1.3950E+07   2.2500E+06
   1.0340E+02   1.4400E+07   2.2500E+06
   1.0360E+02   1.4850E+07   2.2500E+06
   1.0380E+02   1.5300E+07   2.2500E+06
   1.0400E+02   1.5750E+07   2.2500E+06
   1.0420E+02   1.6200E+07   2.2500E+06
   1.0440E+02   1.6650E+07   2.2500E+06
   1.0460E+02   1.7100E+07   2.2500E+06
   1.0480E+02   1.7550E+07   2.2500E+06
   1.0500E+02   1.8000E+07   2.2500E+06
   1.0520E+02   1.8450E+07   2.2500E+06
   1.0540E+02   1.8900E+07   2.2500E+06
   1.0560E+02   1.9350E+07   2.2500E+06
   1.0580E+02   1.9800E+07   2.2500E+06
   1.0600E+02   2.0250E+07   2.2500E+06
   1.0620E+02   2.0700E+07   2.2500E+06
   1.0640E+02   2.1150E+07   2.2500E+06
   1.0660E+02   2.1600E+07   2.2500E+06
   1.0680E+02   2.2050E+07   2.2500E+06
   1.0700E+02   2.2500E+07   2.2500E+06
   1.0720E+02   2.3749E+07   6.2500E+06
   1.0740E+02   2.4999E+07   6.2500E+06
   1.0760E+02   2.6249E+07   6.2500E+06
   1.0780E+02   2.7499E+07   6.2500E+06
   1.0800E+02   2.8749E+07   6.2500E+06
   1.0820E+02   2.9999E+07   6.2500E+06
   1.0840E+02   3.1249E+07   6.2500E+06
   1.0860E+02   3.2499E+07   6.2500E+06
   1.0880E+02   3.3749E+07   6.2500E+06
   1.0900E+02   3.4999E+07   6.2500E+06
   1.0920E+02   3.6249E+07   6.2500E+06
   1.0940E+02   3.7499E+07   6.2500E+06
   1.0960E+02   3.8749E+07   6.2500E+06
   1.0980E+02   3.9999E+07   6.2500E+06
   1.1000E+02   4.1249E+07   6.2500E+06
   1.1020E+02   4.2499E+07   6.2500E+06
   1.1040E+02   4.3749E+07   6.2500E+06
   1.1060E+02   4.4999E+07   6.2500E+06
   1.1080E+02   4.6249E+07   6.2500E+06
   1.1100E+02   4.7499E+07   6.2500E+06
   1.1120E+02   4.8749E+07   6.2500E+06
   1.1140E+02   4.9999E+07   6.2500E+06
   1.1160E+02   5.1249E+07   6.2500E+06
   1.1180E+02   5.2499E+07   6.2500E+06
   1.1200E+02   5.3749E+07   6.2500E+06
   1.1220E+02   5.4999E+07   6.2500E+06
   1.1240E+02   5.6249E+07   6.2500E+06
   1.1260E+02   5.7499E+07   6.2500E+06
   1.1280E+02   5.8748E+07   6.2500E+06
   1.1300E+02   5.9998E+07   6.2500E+06
   1.1320E+02   6.1248E+07   6.2500E+06
   1.1340E+02   6.2498E+07   6.2500E+06
   1.1360E+02   6.3748E+07   6.2500E+06
   1.1380E+02   6.4998E+07   6.2500E+06
   1.1400E+02   6.6248E+07   6.2500E+06
   1.1420E+02   6.7498E+07   6.2500E+06
   1.1440E+02   6.8748E+07   6.2500E+06
   1.1460E+02   6.9998E+07   6.2500E+06
   1.1480E+02   7.1248E+07   6.2500E+06
   1.1500E+02   7.2498E+07   6.2500E+06
   1.1520E+02   7.3748E+07   6.2500E+06
   1.1540E+02   7.4998E+07   6.2500E+06
   1.1560E+02   7.6248E+07   6.2500E+06
   1.1580E+02   7.7498E+07   6.2500E+06
   1.1600E+02   7.8748E+07   6.2500E+06
   1.1620E+02   7.9998E+07   6.2500E+06
   1.1640E+02   8.1248E+07   6.2500E+06
   1.1660E+02   8.2498E+07   6.2500E+06
   1.1680E+02   8.3748E+07   6.2500E+06
   1.1700E+02   8.4998E+07   6.2500E+06
   1.1720E+02   8.6248E+07   6.2500E+06
   1.1740E+02   8.7498E+07   6.2500E+06
   1.1760E+02   8.8748E+07   6.2500E+06
   1.1780E+02   8.9998E+07   6.2500E+06
   1.1800E+02   9.1248E+07   6.2500E+06
   1.1820E+02   9.2498E+07   6.2500E+06
   1.1840E+02   9.3748E+07   6.2500E+06
   1.1860E+02   9.4998E+07   6.2500E+06
   1.1880E+02   9.6248E+07   6.2500E+06
   1.1900E+02   9.7498E+07   6.2500E+06
   1.1920E+02   9.8748E+07   6.2500E+06
   1.1940E+02   9.9998E+07   6.2500E+06
   1.1960E+02   1.0125E+08   6.2500E+06
   1.1980E+02   1.0250E+08   6.2500E+06
   1.2000E+02   1.0375E+08   6.2500E+06
   1.2020E+02   1.0500E+08   6.2500E+06
   1.2040E+02   1.0625E+08   6.2500E+06
   1.2060E+02   1.0750E+08   6.2500E+06
   1.2080E+02   1.0875E+08   6.2500E+06
   1.2100E+02   1.1000E+08   6.2500E+06
   1.2120E+02   1.1125E+08   6.2500E+06
   1.2140E+02   1.1250E+08   6.2500E+06
   1.2160E+02   1.1375E+08   6.2500E+06
   1.2180E+02   1.1500E+08   6.2500E+06
   1.2200E+02   1.1625E+08   6.2500E+06
   1.2220E+02   1.1750E+08   6.2500E+06
   1.2240E+02   1.1875E+08   6.2500E+06
   1.2260E+02   1.2000E+08   6.2500E+06
   1.2280E+02   1.2125E+08   6.2500E+06
   1.2300E+02   1.2250E+08   6.2500E+06
   1.2320E+02   1.2375E+08   6.2500E+06
   1.2340E+02   1.2500E+08   6.2500E+06
   1.2360E+02   1.2625E+08   6.2500E+06
   1.2380E+02   1.2750E+08   6.2500E+06
   1.2400E+02   1.2875E+08   6.2500E+06
   1.2420E+02   1.3000E+08   6.2500E+06
   1.2440E+02   1.3125E+08   6.2500E+06
   1.2460E+02   1.3250E+08   6.2500E+06
   1.2480E+02   1.3375E+08   6.2500E+06
   1.2500E+02   1.3500E+08   6.2500E+06
   1.2520E+02   1.3625E+08   6.2500E+06
   1.2540E+02   1.3750E+08   6.2500E+06
   1.2560E+02   1.3875E+08   6.2500E+06
   1.2580E+02   1.4000E+08   6.2500E+06
   1.2600E+02   1.4125E+08   6.2500E+06
   1.2620E+02   1.4250E+08   6.2500E+06
   1.2640E+02   1.4375E+08   6.2500E+06
   1.2660E+02   1.4500E+08   6.2500E+06
   1.2680E+02   1.4625E+08   6.2500E+06
   1.2700E+02   1.4750E+08   6.2500E+06


 NUMBER OF CONNECTED LAKE SYSTEMS IN SIMULATION IS   0

 LAKE       PRECIP     EVAP     RUNOFF   WITHDRAW   BOTTOM     AREA
----------------------------------------------------------------------
   1     1.160E-02 1.030E-02 0.000E+00  0.000E+00 9.700E+01 6.250E+06




         C               INTERFACE CONDUCTANCES BETWEEN LAKE AND AQUIFER CELLS
   L     O          (IF TYPE = 6, CONDUCTANCE (L^2/T) IS BETWEEN AQUIFER CELL AND OVERLYING LAKE CELL.)
   A     L  L  T    (IF TYPE = 1 TO 4, CONDUCTANCES ARE PER UNIT SATURATED THICKNESS (L/T).)
   Y  R  U  A  Y
   E  O  M  K  P                        LAKEBED      C O N D U C T A N C E S
   R  W  N  E  E     DELTA Y   DELTA X  LEAKANCE   LAKEBED   AQUIFER  COMBINED
 _______________________________________________________________________________
   1  7  6  1  2    5.00E+02  1.00E+03  1.00E-01  5.00E+01  3.00E+01  1.88E+01
   1  8  6  1  2    5.00E+02  1.00E+03  1.00E-01  5.00E+01  3.00E+01  1.88E+01
   1  9  6  1  2    5.00E+02  1.00E+03  1.00E-01  5.00E+01  3.00E+01  1.88E+01
   1 10  6  1  2    5.00E+02  1.00E+03  1.00E-01  5.00E+01  3.00E+01  1.88E+01
   1 11  6  1  2    5.00E+02  1.00E+03  1.00E-01  5.00E+01  3.00E+01  1.88E+01
   1  6  7  1  3    1.00E+03  5.00E+02  1.00E-01  5.00E+01  3.00E+01  1.88E+01
   2  7  7  1  6    5.00E+02  5.00E+02  1.00E-01  2.50E+04  1.50E+06  2.46E+04
   2  8  7  1  6    5.00E+02  5.00E+02  1.00E-01  2.50E+04  1.50E+06  2.46E+04
   2  8  7  1  2    5.00E+02  5.00E+02  1.00E-01  5.00E+01  6.00E+01  2.73E+01
   2  9  7  1  6    5.00E+02  5.00E+02  1.00E-01  2.50E+04  1.50E+06  2.46E+04
   2  9  7  1  2    5.00E+02  5.00E+02  1.00E-01  5.00E+01  6.00E+01  2.73E+01
   2 10  7  1  6    5.00E+02  5.00E+02  1.00E-01  2.50E+04  1.50E+06  2.46E+04
   2 10  7  1  2    5.00E+02  5.00E+02  1.00E-01  5.00E+01  6.00E+01  2.73E+01
   2 11  7  1  6    5.00E+02  5.00E+02  1.00E-01  2.50E+04  1.50E+06  2.46E+04
   1 12  7  1  4    1.00E+03  5.00E+02  1.00E-01  5.00E+01  3.00E+01  1.88E+01
   1  6  8  1  3    1.00E+03  5.00E+02  1.00E-01  5.00E+01  3.00E+01  1.88E+01
   2  7  8  1  6    5.00E+02  5.00E+02  1.00E-01  2.50E+04  1.50E+06  2.46E+04
   2  7  8  1  3    5.00E+02  5.00E+02  1.00E-01  5.00E+01  6.00E+01  2.73E+01
   3  8  8  1  6    5.00E+02  5.00E+02  1.00E-01  2.50E+04  1.50E+06  2.46E+04
   3  9  8  1  6    5.00E+02  5.00E+02  1.00E-01  2.50E+04  1.50E+06  2.46E+04
   3 10  8  1  6    5.00E+02  5.00E+02  1.00E-01  2.50E+04  1.50E+06  2.46E+04
   2 11  8  1  6    5.00E+02  5.00E+02  1.00E-01  2.50E+04  1.50E+06  2.46E+04
   2 11  8  1  4    5.00E+02  5.00E+02  1.00E-01  5.00E+01  6.00E+01  2.73E+01
   1 12  8  1  4    1.00E+03  5.00E+02  1.00E-01  5.00E+01  3.00E+01  1.88E+01
   1  6  9  1  3    1.00E+03  5.00E+02  1.00E-01  5.00E+01  3.00E+01  1.88E+01
   2  7  9  1  6    5.00E+02  5.00E+02  1.00E-01  2.50E+04  1.50E+06  2.46E+04
   2  7  9  1  3    5.00E+02  5.00E+02  1.00E-01  5.00E+01  6.00E+01  2.73E+01
   3  8  9  1  6    5.00E+02  5.00E+02  1.00E-01  2.50E+04  1.50E+06  2.46E+04
   3  9  9  1  6    5.00E+02  5.00E+02  1.00E-01  2.50E+04  1.50E+06  2.46E+04
   3 10  9  1  6    5.00E+02  5.00E+02  1.00E-01  2.50E+04  1.50E+06  2.46E+04
   2 11  9  1  6    5.00E+02  5.00E+02  1.00E-01  2.50E+04  1.50E+06  2.46E+04
   2 11  9  1  4    5.00E+02  5.00E+02  1.00E-01  5.00E+01  6.00E+01  2.73E+01
   1 12  9  1  4    1.00E+03  5.00E+02  1.00E-01  5.00E+01  3.00E+01  1.88E+01
   1  6 10  1  3    1.00E+03  5.00E+02  1.00E-01  5.00E+01  3.00E+01  1.88E+01
   2  7 10  1  6    5.00E+02  5.00E+02  1.00E-01  2.50E+04  1.50E+06  2.46E+04
   2  7 10  1  3    5.00E+02  5.00E+02  1.00E-01  5.00E+01  6.00E+01  2.73E+01
   3  8 10  1  6    5.00E+02  5.00E+02  1.00E-01  2.50E+04  1.50E+06  2.46E+04
   3  9 10  1  6    5.00E+02  5.00E+02  1.00E-01  2.50E+04  1.50E+06  2.46E+04
   3 10 10  1  6    5.00E+02  5.00E+02  1.00E-01  2.50E+04  1.50E+06  2.46E+04
   2 11 10  1  6    5.00E+02  5.00E+02  1.00E-01  2.50E+04  1.50E+06  2.46E+04
   2 11 10  1  4    5.00E+02  5.00E+02  1.00E-01  5.00E+01  6.00E+01  2.73E+01
   1 12 10  1  4    1.00E+03  5.00E+02  1.00E-01  5.00E+01  3.00E+01  1.88E+01
   1  6 11  1  3    1.00E+03  5.00E+02  1.00E-01  5.00E+01  3.00E+01  1.88E+01
   2  7 11  1  6    5.00E+02  5.00E+02  1.00E-01  2.50E+04  1.50E+06  2.46E+04
   2  8 11  1  6    5.00E+02  5.00E+02  1.00E-01  2.50E+04  1.50E+06  2.46E+04
   2  8 11  1  1    5.00E+02  5.00E+02  1.00E-01  5.00E+01  6.00E+01  2.73E+01
   2  9 11  1  6    5.00E+02  5.00E+02  1.00E-01  2.50E+04  1.50E+06  2.46E+04
   2  9 11  1  1    5.00E+02  5.00E+02  1.00E-01  5.00E+01  6.00E+01  2.73E+01
   2 10 11  1  6    5.00E+02  5.00E+02  1.00E-01  2.50E+04  1.50E+06  2.46E+04
   2 10 11  1  1    5.00E+02  5.00E+02  1.00E-01  5.00E+01  6.00E+01  2.73E+01
   2 11 11  1  6    5.00E+02  5.00E+02  1.00E-01  2.50E+04  1.50E+06  2.46E+04
   1 12 11  1  4    1.00E+03  5.00E+02  1.00E-01  5.00E+01  3.00E+01  1.88E+01
   1  7 12  1  1    5.00E+02  1.00E+03  1.00E-01  5.00E+01  3.00E+01  1.88E+01
   1  8 12  1  1    5.00E+02  1.00E+03  1.00E-01  5.00E+01  3.00E+01  1.88E+01
   1  9 12  1  1    5.00E+02  1.00E+03  1.00E-01  5.00E+01  3.00E+01  1.88E+01
   1 10 12  1  1    5.00E+02  1.00E+03  1.00E-01  5.00E+01  3.00E+01  1.88E+01
   1 11 12  1  1    5.00E+02  1.00E+03  1.00E-01  5.00E+01  3.00E+01  1.88E+01


     NOTE: INFORMATION ABOUT CALCULATED LAKE/AQUIFER CONDUCTANCES WHEN USING BCF PACKAGE FOLLOWS: 

 IF WETDRY FLAG NOT TURNED ON, VERTICAL LEAKANCES ARE NOT SAVED:
 THEREFORE, LAKE/AQUIFER CONDUCTANCES ARE BASED SOLELY ON LAKEBED SPECIFICATION




 
 SOLVING FOR HEAD 
