                                  MODFLOW-2000
      U.S. GEOLOGICAL SURVEY MODULAR FINITE-DIFFERENCE GROUND-WATER FLOW MODEL
                             VERSION 1.11 04/10/2003


 This model run combines GLOBAL and LIST output into this single file.

 GLOBAL LISTING FILE: l1a2k.lst
                         UNIT    1

 OPENING ../data/l1a2k.ba6
 FILE TYPE:BAS6   UNIT    7   STATUS:OLD    
 FORMAT:FORMATTED              ACCESS:SEQUENTIAL          

 OPENING ../data/l1a2k.bc6
 FILE TYPE:BCF6   UNIT   10   STATUS:OLD    
 FORMAT:FORMATTED              ACCESS:SEQUENTIAL          

 OPENING ../data/l1a2k.evt
 FILE TYPE:EVT   UNIT   11   STATUS:OLD    
 FORMAT:FORMATTED              ACCESS:SEQUENTIAL          

 OPENING ../data/l1a2k.rch
 FILE TYPE:RCH   UNIT   12   STATUS:OLD    
 FORMAT:FORMATTED              ACCESS:SEQUENTIAL          

 OPENING ../data/l1a2k.sip
 FILE TYPE:SIP   UNIT   13   STATUS:OLD    
 FORMAT:FORMATTED              ACCESS:SEQUENTIAL          

 OPENING ../data/l1a2k.oc
 FILE TYPE:OC   UNIT   17   STATUS:OLD    
 FORMAT:FORMATTED              ACCESS:SEQUENTIAL          

 OPENING ../data/l1a2k.lak
 FILE TYPE:LAK   UNIT   16   STATUS:OLD    
 FORMAT:FORMATTED              ACCESS:SEQUENTIAL          

 OPENING ../data/l1a2k.dis
 FILE TYPE:DIS   UNIT   14   STATUS:OLD    
 FORMAT:FORMATTED              ACCESS:SEQUENTIAL          

 OPENING ../data/l1a2k.fhb
 FILE TYPE:FHB   UNIT   21   STATUS:OLD    
 FORMAT:FORMATTED              ACCESS:SEQUENTIAL          

 OPENING ../data/l1a2k.gag
 FILE TYPE:GAGE   UNIT   33   STATUS:OLD    
 FORMAT:FORMATTED              ACCESS:SEQUENTIAL          

 OPENING ../data/l1a2k.got
 FILE TYPE:DATA   UNIT   37   STATUS:UNKNOWN
 FORMAT:FORMATTED              ACCESS:SEQUENTIAL          


 DISCRETIZATION INPUT DATA READ FROM UNIT   14
    5 LAYERS        17 ROWS        17 COLUMNS
    1 STRESS PERIOD(S) IN SIMULATION
 MODEL TIME UNIT IS DAYS
 MODEL LENGTH UNIT IS UNDEFINED
 THE GROUND-WATER TRANSPORT PROCESS IS INACTIVE

 THE OBSERVATION PROCESS IS INACTIVE
 THE SENSITIVITY PROCESS IS INACTIVE
 THE PARAMETER-ESTIMATION PROCESS IS INACTIVE

 MODE: FORWARD

  Confining bed flag for each layer:
   0   0   0   0   0

      13039  ELEMENTS OF GX ARRAY USED OUT OF      13039
       1445  ELEMENTS OF GZ ARRAY USED OUT OF       1445
       1445  ELEMENTS OF IG ARRAY USED OUT OF       1445



                               DELR
 READING ON UNIT   14 WITH FORMAT: (10F13.0)           
   250.00       1000.0       1000.0       1000.0       1000.0       1000.0       500.00       500.00       500.00       500.00    
   500.00       1000.0       1000.0       1000.0       1000.0       1000.0       250.00    



                               DELC
 READING ON UNIT   14 WITH FORMAT: (10F13.0)           
   250.00       1000.0       1000.0       1000.0       1000.0       1000.0       500.00       500.00       500.00       500.00    
   500.00       1000.0       1000.0       1000.0       1000.0       1000.0       250.00    

 TOP ELEVATION OF LAYER 1 =   500.000    

   MODEL LAYER BOTTOM EL. =   107.000     FOR LAYER   1

   MODEL LAYER BOTTOM EL. =   97.0000     FOR LAYER   2

   MODEL LAYER BOTTOM EL. =   87.0000     FOR LAYER   3

   MODEL LAYER BOTTOM EL. =   77.0000     FOR LAYER   4

   MODEL LAYER BOTTOM EL. =   67.0000     FOR LAYER   5


 STRESS PERIOD     LENGTH       TIME STEPS     MULTIPLIER FOR DELT    SS FLAG
 ----------------------------------------------------------------------------
        1         5000.000        100                    1.020         TR

 TRANSIENT SIMULATION




 SIP5 -- STRONGLY IMPLICIT PROCEDURE SOLUTION PACKAGE
                    VERSION 5, 9/1/93 INPUT READ FROM UNIT   13
 MAXIMUM OF 500 ITERATIONS ALLOWED FOR CLOSURE
  5 ITERATION PARAMETERS
       6285 ELEMENTS IN X ARRAY ARE USED BY SIP
       1500 ELEMENTS IN IX ARRAY ARE USED BY SIP

       6285  ELEMENTS OF X ARRAY USED OUT OF       6285
          0  ELEMENTS OF Z ARRAY USED OUT OF          1
       1500  ELEMENTS OF IX ARRAY USED OUT OF       1500
          0  ELEMENTS OF XHS ARRAY USED OUT OF          1



          SOLUTION BY THE STRONGLY IMPLICIT PROCEDURE
          -------------------------------------------
 MAXIMUM ITERATIONS ALLOWED FOR CLOSURE =      500
                 ACCELERATION PARAMETER =     1.0000    
      HEAD CHANGE CRITERION FOR CLOSURE =    0.10000E-03
      SIP HEAD CHANGE PRINTOUT INTERVAL =        1

     CALCULATE ITERATION PARAMETERS FROM MODEL CALCULATED WSEED
 
 #Hypothetical simulator of lake and surficial aquifer interaction. ------------ 
 #Shows convergence to equilibrium in transient mode.                            
    5 LAYERS        17 ROWS        17 COLUMNS
    1 STRESS PERIOD(S) IN SIMULATION

 BAS6 -- BASIC PACKAGE, VERSION 6, 1/11/2000 INPUT READ FROM UNIT    7
         25 ELEMENTS IN IR ARRAY ARE USED BY BAS

 BCF6 -- BLOCK-CENTERED FLOW PACKAGE, VERSION 6, 1/11/2000
         INPUT READ FROM UNIT 10
 TRANSIENT SIMULATION
 HEAD AT CELLS THAT CONVERT TO DRY=   0.0000    
 WETTING CAPABILITY IS ACTIVE
 WETTING FACTOR=   1.00000     WETTING ITERATION INTERVAL=   1
 FLAG THAT SPECIFIES THE EQUATION TO USE FOR HEAD AT WETTED CELLS=   0
      LAYER  LAYER-TYPE CODE     INTERBLOCK T
      --------------------------------------------
         1            1          0 -- HARMONIC    
         2            3          0 -- HARMONIC    
         3            3          0 -- HARMONIC    
         4            3          0 -- HARMONIC    
         5            3          0 -- HARMONIC    
       6652 ELEMENTS IN RX ARRAY ARE USED BY BCF

 EVT6 -- EVAPOTRANSPIRATION PACKAGE, VERSION 6, 12/14/2000
         INPUT READ FROM UNIT   11
 No named parameters
 OPTION 3 -- EVAPOTRANSPIRATION FROM HIGHEST ACTIVE NODE IN EACH VERTICAL COLUMN
        867 ELEMENTS IN RX ARRAY ARE USED BY EVT
        289 ELEMENTS IN IR ARRAY ARE USED BY EVT

 RCH6 -- RECHARGE PACKAGE, VERSION 6, 1/11/2000 INPUT READ FROM UNIT   12
 No named parameters
 OPTION 3 -- RECHARGE TO HIGHEST ACTIVE NODE IN EACH VERTICAL COLUMN
        289 ELEMENTS IN RX ARRAY ARE USED BY RCH
        289 ELEMENTS IN IR ARRAY ARE USED BY RCH
0FHB1 -- SPECIFIED FLOW PACKAGE, VERSION 1,12/3/96 INPUT READ FROM 21
  SPECIFIED FLOW AND HEAD VALUES WILL REMAIN CONSTANT FOR ENTIRE SIMULATION.
 FLOW WILL BE SPECIFIED AT A TOTAL OF    0 CELLS.
 HEAD WILL BE SPECIFIED AT A TOTAL OF  320 CELLS.
 FHB STEADY-STATE OPTION FLAG WILL BE IGNORED,
 AT LEAST ONE STRESS PERIOD IS TRANSIENT.
  0 AUXILIARY VARIABLES FOR SPECIFIED-FLOW CELLS WILL
  BE DEFINED BY FHB FOR USE BY OTHER PACKAGES.
  0 AUXILIARY VARIABLES FOR SPECIFIED-HEAD CELLS WILL
  BE DEFINED BY FHB FOR USE BY OTHER PACKAGES.
      321 ELEMENTS IN RX ARRAY ARE USED FOR FHB1
     1280 ELEMENTS IN IR ARRAY ARE USED FOR FHB1

 LAK3 -- LAKE PACKAGE, VERSION 3, 6/28/99 INPUT READ FROM UNIT 16
 SPACE ALLOCATION FOR   1445 GRID CELL FACES ADJACENT TO LAKES
 MAXIMUM NUMBER OF LAKES IS  1 FOR THIS SIMULATION
 CELL-BY-CELL SEEPAGES WILL NOT BE PRINTED OR SAVED

 THETA =       0.00  METHOD FOR UPDATING LAKE STAGES IN ITERATIONS OF THE SOLUTION FOR AQUIFER HEADS.
                    0.0 IS EXPLICIT, 0.5 IS CENTERED, AND 1.0 IS FULLY IMPLICIT.
       4376 ELEMENTS IN RX ARRAY ARE USED BY LAK
      10124 ELEMENTS IN IR ARRAY ARE USED BY LAK
          3 ELEMENTS IN IX ARRAY ARE USED BY GAGE

      12505  ELEMENTS OF RX ARRAY USED OUT OF      12505
      12011  ELEMENTS OF IR ARRAY USED OUT OF      12011
1
 #Hypothetical simulator of lake and surficial aquifer interaction. ------------ 
 #Shows convergence to equilibrium in transient mode.                            



                     BOUNDARY ARRAY FOR LAYER   1
 READING ON UNIT    7 WITH FORMAT: (20I4)              

        1   2   3   4   5   6   7   8   9  10  11  12  13  14  15  16  17
 ........................................................................
   1   -1  -1  -1  -1  -1  -1  -1  -1  -1  -1  -1  -1  -1  -1  -1  -1  -1
   2   -1   1   1   1   1   1   1   1   1   1   1   1   1   1   1   1  -1
   3   -1   1   1   1   1   1   1   1   1   1   1   1   1   1   1   1  -1
   4   -1   1   1   1   1   1   1   1   1   1   1   1   1   1   1   1  -1
   5   -1   1   1   1   1   1   1   1   1   1   1   1   1   1   1   1  -1
   6   -1   1   1   1   1   1   1   1   1   1   1   1   1   1   1   1  -1
   7   -1   1   1   1   1   1   0   0   0   0   0   1   1   1   1   1  -1
   8   -1   1   1   1   1   1   0   0   0   0   0   1   1   1   1   1  -1
   9   -1   1   1   1   1   1   0   0   0   0   0   1   1   1   1   1  -1
  10   -1   1   1   1   1   1   0   0   0   0   0   1   1   1   1   1  -1
  11   -1   1   1   1   1   1   0   0   0   0   0   1   1   1   1   1  -1
  12   -1   1   1   1   1   1   1   1   1   1   1   1   1   1   1   1  -1
  13   -1   1   1   1   1   1   1   1   1   1   1   1   1   1   1   1  -1
  14   -1   1   1   1   1   1   1   1   1   1   1   1   1   1   1   1  -1
  15   -1   1   1   1   1   1   1   1   1   1   1   1   1   1   1   1  -1
  16   -1   1   1   1   1   1   1   1   1   1   1   1   1   1   1   1  -1
  17   -1  -1  -1  -1  -1  -1  -1  -1  -1  -1  -1  -1  -1  -1  -1  -1  -1



                     BOUNDARY ARRAY FOR LAYER   2
 READING ON UNIT    7 WITH FORMAT: (20I4)              

        1   2   3   4   5   6   7   8   9  10  11  12  13  14  15  16  17
 ........................................................................
   1   -1  -1  -1  -1  -1  -1  -1  -1  -1  -1  -1  -1  -1  -1  -1  -1  -1
   2   -1   1   1   1   1   1   1   1   1   1   1   1   1   1   1   1  -1
   3   -1   1   1   1   1   1   1   1   1   1   1   1   1   1   1   1  -1
   4   -1   1   1   1   1   1   1   1   1   1   1   1   1   1   1   1  -1
   5   -1   1   1   1   1   1   1   1   1   1   1   1   1   1   1   1  -1
   6   -1   1   1   1   1   1   1   1   1   1   1   1   1   1   1   1  -1
   7   -1   1   1   1   1   1   1   1   1   1   1   1   1   1   1   1  -1
   8   -1   1   1   1   1   1   1   0   0   0   1   1   1   1   1   1  -1
   9   -1   1   1   1   1   1   1   0   0   0   1   1   1   1   1   1  -1
  10   -1   1   1   1   1   1   1   0   0   0   1   1   1   1   1   1  -1
  11   -1   1   1   1   1   1   1   1   1   1   1   1   1   1   1   1  -1
  12   -1   1   1   1   1   1   1   1   1   1   1   1   1   1   1   1  -1
  13   -1   1   1   1   1   1   1   1   1   1   1   1   1   1   1   1  -1
  14   -1   1   1   1   1   1   1   1   1   1   1   1   1   1   1   1  -1
  15   -1   1   1   1   1   1   1   1   1   1   1   1   1   1   1   1  -1
  16   -1   1   1   1   1   1   1   1   1   1   1   1   1   1   1   1  -1
  17   -1  -1  -1  -1  -1  -1  -1  -1  -1  -1  -1  -1  -1  -1  -1  -1  -1



                     BOUNDARY ARRAY FOR LAYER   3
 READING ON UNIT    7 WITH FORMAT: (20I4)              

        1   2   3   4   5   6   7   8   9  10  11  12  13  14  15  16  17
 ........................................................................
   1   -1  -1  -1  -1  -1  -1  -1  -1  -1  -1  -1  -1  -1  -1  -1  -1  -1
   2   -1   1   1   1   1   1   1   1   1   1   1   1   1   1   1   1  -1
   3   -1   1   1   1   1   1   1   1   1   1   1   1   1   1   1   1  -1
   4   -1   1   1   1   1   1   1   1   1   1   1   1   1   1   1   1  -1
   5   -1   1   1   1   1   1   1   1   1   1   1   1   1   1   1   1  -1
   6   -1   1   1   1   1   1   1   1   1   1   1   1   1   1   1   1  -1
   7   -1   1   1   1   1   1   1   1   1   1   1   1   1   1   1   1  -1
   8   -1   1   1   1   1   1   1   1   1   1   1   1   1   1   1   1  -1
   9   -1   1   1   1   1   1   1   1   1   1   1   1   1   1   1   1  -1
  10   -1   1   1   1   1   1   1   1   1   1   1   1   1   1   1   1  -1
  11   -1   1   1   1   1   1   1   1   1   1   1   1   1   1   1   1  -1
  12   -1   1   1   1   1   1   1   1   1   1   1   1   1   1   1   1  -1
  13   -1   1   1   1   1   1   1   1   1   1   1   1   1   1   1   1  -1
  14   -1   1   1   1   1   1   1   1   1   1   1   1   1   1   1   1  -1
  15   -1   1   1   1   1   1   1   1   1   1   1   1   1   1   1   1  -1
  16   -1   1   1   1   1   1   1   1   1   1   1   1   1   1   1   1  -1
  17   -1  -1  -1  -1  -1  -1  -1  -1  -1  -1  -1  -1  -1  -1  -1  -1  -1



                     BOUNDARY ARRAY FOR LAYER   4
 READING ON UNIT    7 WITH FORMAT: (20I4)              

        1   2   3   4   5   6   7   8   9  10  11  12  13  14  15  16  17
 ........................................................................
   1   -1  -1  -1  -1  -1  -1  -1  -1  -1  -1  -1  -1  -1  -1  -1  -1  -1
   2   -1   1   1   1   1   1   1   1   1   1   1   1   1   1   1   1  -1
   3   -1   1   1   1   1   1   1   1   1   1   1   1   1   1   1   1  -1
   4   -1   1   1   1   1   1   1   1   1   1   1   1   1   1   1   1  -1
   5   -1   1   1   1   1   1   1   1   1   1   1   1   1   1   1   1  -1
   6   -1   1   1   1   1   1   1   1   1   1   1   1   1   1   1   1  -1
   7   -1   1   1   1   1   1   1   1   1   1   1   1   1   1   1   1  -1
   8   -1   1   1   1   1   1   1   1   1   1   1   1   1   1   1   1  -1
   9   -1   1   1   1   1   1   1   1   1   1   1   1   1   1   1   1  -1
  10   -1   1   1   1   1   1   1   1   1   1   1   1   1   1   1   1  -1
  11   -1   1   1   1   1   1   1   1   1   1   1   1   1   1   1   1  -1
  12   -1   1   1   1   1   1   1   1   1   1   1   1   1   1   1   1  -1
  13   -1   1   1   1   1   1   1   1   1   1   1   1   1   1   1   1  -1
  14   -1   1   1   1   1   1   1   1   1   1   1   1   1   1   1   1  -1
  15   -1   1   1   1   1   1   1   1   1   1   1   1   1   1   1   1  -1
  16   -1   1   1   1   1   1   1   1   1   1   1   1   1   1   1   1  -1
  17   -1  -1  -1  -1  -1  -1  -1  -1  -1  -1  -1  -1  -1  -1  -1  -1  -1



                     BOUNDARY ARRAY FOR LAYER   5
 READING ON UNIT    7 WITH FORMAT: (20I4)              

        1   2   3   4   5   6   7   8   9  10  11  12  13  14  15  16  17
 ........................................................................
   1   -1  -1  -1  -1  -1  -1  -1  -1  -1  -1  -1  -1  -1  -1  -1  -1  -1
   2   -1   1   1   1   1   1   1   1   1   1   1   1   1   1   1   1  -1
   3   -1   1   1   1   1   1   1   1   1   1   1   1   1   1   1   1  -1
   4   -1   1   1   1   1   1   1   1   1   1   1   1   1   1   1   1  -1
   5   -1   1   1   1   1   1   1   1   1   1   1   1   1   1   1   1  -1
   6   -1   1   1   1   1   1   1   1   1   1   1   1   1   1   1   1  -1
   7   -1   1   1   1   1   1   1   1   1   1   1   1   1   1   1   1  -1
   8   -1   1   1   1   1   1   1   1   1   1   1   1   1   1   1   1  -1
   9   -1   1   1   1   1   1   1   1   1   1   1   1   1   1   1   1  -1
  10   -1   1   1   1   1   1   1   1   1   1   1   1   1   1   1   1  -1
  11   -1   1   1   1   1   1   1   1   1   1   1   1   1   1   1   1  -1
  12   -1   1   1   1   1   1   1   1   1   1   1   1   1   1   1   1  -1
  13   -1   1   1   1   1   1   1   1   1   1   1   1   1   1   1   1  -1
  14   -1   1   1   1   1   1   1   1   1   1   1   1   1   1   1   1  -1
  15   -1   1   1   1   1   1   1   1   1   1   1   1   1   1   1   1  -1
  16   -1   1   1   1   1   1   1   1   1   1   1   1   1   1   1   1  -1
  17   -1  -1  -1  -1  -1  -1  -1  -1  -1  -1  -1  -1  -1  -1  -1  -1  -1

 AQUIFER HEAD WILL BE SET TO -999.00     AT ALL NO-FLOW NODES (IBOUND=0).

             INITIAL HEAD =   115.000     FOR LAYER   1

             INITIAL HEAD =   115.000     FOR LAYER   2

             INITIAL HEAD =   115.000     FOR LAYER   3

             INITIAL HEAD =   115.000     FOR LAYER   4

             INITIAL HEAD =   115.000     FOR LAYER   5

 OUTPUT CONTROL IS SPECIFIED EVERY TIME STEP
 HEAD PRINT FORMAT CODE IS -14    DRAWDOWN PRINT FORMAT CODE IS   9
 HEADS WILL BE SAVED ON UNIT   18    DRAWDOWNS WILL BE SAVED ON UNIT   19

 COLUMN TO ROW ANISOTROPY =   1.00000    

     PRIMARY STORAGE COEF =  0.200000     FOR LAYER   1

    HYD. COND. ALONG ROWS =   30.0000     FOR LAYER   1

 VERT HYD COND /THICKNESS =   3.00000     FOR LAYER   1



                   WETDRY PARAMETER FOR LAYER   1
 READING ON UNIT   10 WITH FORMAT: (10F13.0)           

         1     2     3     4     5     6     7     8     9    10    11    12    13    14    15    16    17
 .........................................................................................................
   1    0.0   0.0   0.0   0.0   0.0   0.0   0.0   0.0   0.0   0.0   0.0   0.0   0.0   0.0   0.0   0.0   0.0
   2    0.0  -0.2  -0.2  -0.2  -0.2  -0.2  -0.2  -0.2  -0.2  -0.2  -0.2  -0.2  -0.2  -0.2  -0.2  -0.2   0.0
   3    0.0  -0.2  -0.2  -0.2  -0.2  -0.2  -0.2  -0.2  -0.2  -0.2  -0.2  -0.2  -0.2  -0.2  -0.2  -0.2   0.0
   4    0.0  -0.2  -0.2  -0.2  -0.2  -0.2  -0.2  -0.2  -0.2  -0.2  -0.2  -0.2  -0.2  -0.2  -0.2  -0.2   0.0
   5    0.0  -0.2  -0.2  -0.2  -0.2  -0.2  -0.2  -0.2  -0.2  -0.2  -0.2  -0.2  -0.2  -0.2  -0.2  -0.2   0.0
   6    0.0  -0.2  -0.2  -0.2  -0.2  -0.2  -0.2  -0.2  -0.2  -0.2  -0.2  -0.2  -0.2  -0.2  -0.2  -0.2   0.0
   7    0.0  -0.2  -0.2  -0.2  -0.2  -0.2   0.0   0.0   0.0   0.0   0.0  -0.2  -0.2  -0.2  -0.2  -0.2   0.0
   8    0.0  -0.2  -0.2  -0.2  -0.2  -0.2   0.0   0.0   0.0   0.0   0.0  -0.2  -0.2  -0.2  -0.2  -0.2   0.0
   9    0.0  -0.2  -0.2  -0.2  -0.2  -0.2   0.0   0.0   0.0   0.0   0.0  -0.2  -0.2  -0.2  -0.2  -0.2   0.0
  10    0.0  -0.2  -0.2  -0.2  -0.2  -0.2   0.0   0.0   0.0   0.0   0.0  -0.2  -0.2  -0.2  -0.2  -0.2   0.0
  11    0.0  -0.2  -0.2  -0.2  -0.2  -0.2   0.0   0.0   0.0   0.0   0.0  -0.2  -0.2  -0.2  -0.2  -0.2   0.0
  12    0.0  -0.2  -0.2  -0.2  -0.2  -0.2  -0.2  -0.2  -0.2  -0.2  -0.2  -0.2  -0.2  -0.2  -0.2  -0.2   0.0
  13    0.0  -0.2  -0.2  -0.2  -0.2  -0.2  -0.2  -0.2  -0.2  -0.2  -0.2  -0.2  -0.2  -0.2  -0.2  -0.2   0.0
  14    0.0  -0.2  -0.2  -0.2  -0.2  -0.2  -0.2  -0.2  -0.2  -0.2  -0.2  -0.2  -0.2  -0.2  -0.2  -0.2   0.0
  15    0.0  -0.2  -0.2  -0.2  -0.2  -0.2  -0.2  -0.2  -0.2  -0.2  -0.2  -0.2  -0.2  -0.2  -0.2  -0.2   0.0
  16    0.0  -0.2  -0.2  -0.2  -0.2  -0.2  -0.2  -0.2  -0.2  -0.2  -0.2  -0.2  -0.2  -0.2  -0.2  -0.2   0.0
  17    0.0   0.0   0.0   0.0   0.0   0.0   0.0   0.0   0.0   0.0   0.0   0.0   0.0   0.0   0.0   0.0   0.0

     PRIMARY STORAGE COEF =  3.000000E-04 FOR LAYER   2

    HYD. COND. ALONG ROWS =   30.0000     FOR LAYER   2

 VERT HYD COND /THICKNESS =   3.00000     FOR LAYER   2

   SECONDARY STORAGE COEF =  0.200000     FOR LAYER   2



                   WETDRY PARAMETER FOR LAYER   2
 READING ON UNIT   10 WITH FORMAT: (10F13.0)           

         1     2     3     4     5     6     7     8     9    10    11    12    13    14    15    16    17
 .........................................................................................................
   1    0.0   0.0   0.0   0.0   0.0   0.0   0.0   0.0   0.0   0.0   0.0   0.0   0.0   0.0   0.0   0.0   0.0
   2    0.0  -0.2  -0.2  -0.2  -0.2  -0.2  -0.2  -0.2  -0.2  -0.2  -0.2  -0.2  -0.2  -0.2  -0.2  -0.2   0.0
   3    0.0  -0.2  -0.2  -0.2  -0.2  -0.2  -0.2  -0.2  -0.2  -0.2  -0.2  -0.2  -0.2  -0.2  -0.2  -0.2   0.0
   4    0.0  -0.2  -0.2  -0.2  -0.2  -0.2  -0.2  -0.2  -0.2  -0.2  -0.2  -0.2  -0.2  -0.2  -0.2  -0.2   0.0
   5    0.0  -0.2  -0.2  -0.2  -0.2  -0.2  -0.2  -0.2  -0.2  -0.2  -0.2  -0.2  -0.2  -0.2  -0.2  -0.2   0.0
   6    0.0  -0.2  -0.2  -0.2  -0.2  -0.2  -0.2  -0.2  -0.2  -0.2  -0.2  -0.2  -0.2  -0.2  -0.2  -0.2   0.0
   7    0.0  -0.2  -0.2  -0.2  -0.2  -0.2  -0.2  -0.2  -0.2  -0.2  -0.2  -0.2  -0.2  -0.2  -0.2  -0.2   0.0
   8    0.0  -0.2  -0.2  -0.2  -0.2  -0.2  -0.2   0.0   0.0   0.0  -0.2  -0.2  -0.2  -0.2  -0.2  -0.2   0.0
   9    0.0  -0.2  -0.2  -0.2  -0.2  -0.2  -0.2   0.0   0.0   0.0  -0.2  -0.2  -0.2  -0.2  -0.2  -0.2   0.0
  10    0.0  -0.2  -0.2  -0.2  -0.2  -0.2  -0.2   0.0   0.0   0.0  -0.2  -0.2  -0.2  -0.2  -0.2  -0.2   0.0
  11    0.0  -0.2  -0.2  -0.2  -0.2  -0.2  -0.2  -0.2  -0.2  -0.2  -0.2  -0.2  -0.2  -0.2  -0.2  -0.2   0.0
  12    0.0  -0.2  -0.2  -0.2  -0.2  -0.2  -0.2  -0.2  -0.2  -0.2  -0.2  -0.2  -0.2  -0.2  -0.2  -0.2   0.0
  13    0.0  -0.2  -0.2  -0.2  -0.2  -0.2  -0.2  -0.2  -0.2  -0.2  -0.2  -0.2  -0.2  -0.2  -0.2  -0.2   0.0
  14    0.0  -0.2  -0.2  -0.2  -0.2  -0.2  -0.2  -0.2  -0.2  -0.2  -0.2  -0.2  -0.2  -0.2  -0.2  -0.2   0.0
  15    0.0  -0.2  -0.2  -0.2  -0.2  -0.2  -0.2  -0.2  -0.2  -0.2  -0.2  -0.2  -0.2  -0.2  -0.2  -0.2   0.0
  16    0.0  -0.2  -0.2  -0.2  -0.2  -0.2  -0.2  -0.2  -0.2  -0.2  -0.2  -0.2  -0.2  -0.2  -0.2  -0.2   0.0
  17    0.0   0.0   0.0   0.0   0.0   0.0   0.0   0.0   0.0   0.0   0.0   0.0   0.0   0.0   0.0   0.0   0.0

     PRIMARY STORAGE COEF =  3.000000E-04 FOR LAYER   3

    HYD. COND. ALONG ROWS =   30.0000     FOR LAYER   3

 VERT HYD COND /THICKNESS =   3.00000     FOR LAYER   3

   SECONDARY STORAGE COEF =  0.200000     FOR LAYER   3



                   WETDRY PARAMETER FOR LAYER   3
 READING ON UNIT   10 WITH FORMAT: (10F13.0)           

         1     2     3     4     5     6     7     8     9    10    11    12    13    14    15    16    17
 .........................................................................................................
   1    0.0   0.0   0.0   0.0   0.0   0.0   0.0   0.0   0.0   0.0   0.0   0.0   0.0   0.0   0.0   0.0   0.0
   2    0.0  -0.2  -0.2  -0.2  -0.2  -0.2  -0.2  -0.2  -0.2  -0.2  -0.2  -0.2  -0.2  -0.2  -0.2  -0.2   0.0
   3    0.0  -0.2  -0.2  -0.2  -0.2  -0.2  -0.2  -0.2  -0.2  -0.2  -0.2  -0.2  -0.2  -0.2  -0.2  -0.2   0.0
   4    0.0  -0.2  -0.2  -0.2  -0.2  -0.2  -0.2  -0.2  -0.2  -0.2  -0.2  -0.2  -0.2  -0.2  -0.2  -0.2   0.0
   5    0.0  -0.2  -0.2  -0.2  -0.2  -0.2  -0.2  -0.2  -0.2  -0.2  -0.2  -0.2  -0.2  -0.2  -0.2  -0.2   0.0
   6    0.0  -0.2  -0.2  -0.2  -0.2  -0.2  -0.2  -0.2  -0.2  -0.2  -0.2  -0.2  -0.2  -0.2  -0.2  -0.2   0.0
   7    0.0  -0.2  -0.2  -0.2  -0.2  -0.2  -0.2  -0.2  -0.2  -0.2  -0.2  -0.2  -0.2  -0.2  -0.2  -0.2   0.0
   8    0.0  -0.2  -0.2  -0.2  -0.2  -0.2  -0.2  -0.2  -0.2  -0.2  -0.2  -0.2  -0.2  -0.2  -0.2  -0.2   0.0
   9    0.0  -0.2  -0.2  -0.2  -0.2  -0.2  -0.2  -0.2  -0.2  -0.2  -0.2  -0.2  -0.2  -0.2  -0.2  -0.2   0.0
  10    0.0  -0.2  -0.2  -0.2  -0.2  -0.2  -0.2  -0.2  -0.2  -0.2  -0.2  -0.2  -0.2  -0.2  -0.2  -0.2   0.0
  11    0.0  -0.2  -0.2  -0.2  -0.2  -0.2  -0.2  -0.2  -0.2  -0.2  -0.2  -0.2  -0.2  -0.2  -0.2  -0.2   0.0
  12    0.0  -0.2  -0.2  -0.2  -0.2  -0.2  -0.2  -0.2  -0.2  -0.2  -0.2  -0.2  -0.2  -0.2  -0.2  -0.2   0.0
  13    0.0  -0.2  -0.2  -0.2  -0.2  -0.2  -0.2  -0.2  -0.2  -0.2  -0.2  -0.2  -0.2  -0.2  -0.2  -0.2   0.0
  14    0.0  -0.2  -0.2  -0.2  -0.2  -0.2  -0.2  -0.2  -0.2  -0.2  -0.2  -0.2  -0.2  -0.2  -0.2  -0.2   0.0
  15    0.0  -0.2  -0.2  -0.2  -0.2  -0.2  -0.2  -0.2  -0.2  -0.2  -0.2  -0.2  -0.2  -0.2  -0.2  -0.2   0.0
  16    0.0  -0.2  -0.2  -0.2  -0.2  -0.2  -0.2  -0.2  -0.2  -0.2  -0.2  -0.2  -0.2  -0.2  -0.2  -0.2   0.0
  17    0.0   0.0   0.0   0.0   0.0   0.0   0.0   0.0   0.0   0.0   0.0   0.0   0.0   0.0   0.0   0.0   0.0

     PRIMARY STORAGE COEF =  3.000000E-04 FOR LAYER   4

    HYD. COND. ALONG ROWS =   30.0000     FOR LAYER   4

 VERT HYD COND /THICKNESS =   3.00000     FOR LAYER   4

   SECONDARY STORAGE COEF =  0.200000     FOR LAYER   4



                   WETDRY PARAMETER FOR LAYER   4
 READING ON UNIT   10 WITH FORMAT: (10F13.0)           

         1     2     3     4     5     6     7     8     9    10    11    12    13    14    15    16    17
 .........................................................................................................
   1    0.0   0.0   0.0   0.0   0.0   0.0   0.0   0.0   0.0   0.0   0.0   0.0   0.0   0.0   0.0   0.0   0.0
   2    0.0  -0.2  -0.2  -0.2  -0.2  -0.2  -0.2  -0.2  -0.2  -0.2  -0.2  -0.2  -0.2  -0.2  -0.2  -0.2   0.0
   3    0.0  -0.2  -0.2  -0.2  -0.2  -0.2  -0.2  -0.2  -0.2  -0.2  -0.2  -0.2  -0.2  -0.2  -0.2  -0.2   0.0
   4    0.0  -0.2  -0.2  -0.2  -0.2  -0.2  -0.2  -0.2  -0.2  -0.2  -0.2  -0.2  -0.2  -0.2  -0.2  -0.2   0.0
   5    0.0  -0.2  -0.2  -0.2  -0.2  -0.2  -0.2  -0.2  -0.2  -0.2  -0.2  -0.2  -0.2  -0.2  -0.2  -0.2   0.0
   6    0.0  -0.2  -0.2  -0.2  -0.2  -0.2  -0.2  -0.2  -0.2  -0.2  -0.2  -0.2  -0.2  -0.2  -0.2  -0.2   0.0
   7    0.0  -0.2  -0.2  -0.2  -0.2  -0.2  -0.2  -0.2  -0.2  -0.2  -0.2  -0.2  -0.2  -0.2  -0.2  -0.2   0.0
   8    0.0  -0.2  -0.2  -0.2  -0.2  -0.2  -0.2  -0.2  -0.2  -0.2  -0.2  -0.2  -0.2  -0.2  -0.2  -0.2   0.0
   9    0.0  -0.2  -0.2  -0.2  -0.2  -0.2  -0.2  -0.2  -0.2  -0.2  -0.2  -0.2  -0.2  -0.2  -0.2  -0.2   0.0
  10    0.0  -0.2  -0.2  -0.2  -0.2  -0.2  -0.2  -0.2  -0.2  -0.2  -0.2  -0.2  -0.2  -0.2  -0.2  -0.2   0.0
  11    0.0  -0.2  -0.2  -0.2  -0.2  -0.2  -0.2  -0.2  -0.2  -0.2  -0.2  -0.2  -0.2  -0.2  -0.2  -0.2   0.0
  12    0.0  -0.2  -0.2  -0.2  -0.2  -0.2  -0.2  -0.2  -0.2  -0.2  -0.2  -0.2  -0.2  -0.2  -0.2  -0.2   0.0
  13    0.0  -0.2  -0.2  -0.2  -0.2  -0.2  -0.2  -0.2  -0.2  -0.2  -0.2  -0.2  -0.2  -0.2  -0.2  -0.2   0.0
  14    0.0  -0.2  -0.2  -0.2  -0.2  -0.2  -0.2  -0.2  -0.2  -0.2  -0.2  -0.2  -0.2  -0.2  -0.2  -0.2   0.0
  15    0.0  -0.2  -0.2  -0.2  -0.2  -0.2  -0.2  -0.2  -0.2  -0.2  -0.2  -0.2  -0.2  -0.2  -0.2  -0.2   0.0
  16    0.0  -0.2  -0.2  -0.2  -0.2  -0.2  -0.2  -0.2  -0.2  -0.2  -0.2  -0.2  -0.2  -0.2  -0.2  -0.2   0.0
  17    0.0   0.0   0.0   0.0   0.0   0.0   0.0   0.0   0.0   0.0   0.0   0.0   0.0   0.0   0.0   0.0   0.0

     PRIMARY STORAGE COEF =  3.000000E-04 FOR LAYER   5

    HYD. COND. ALONG ROWS =   30.0000     FOR LAYER   5

   SECONDARY STORAGE COEF =  0.200000     FOR LAYER   5



                   WETDRY PARAMETER FOR LAYER   5
 READING ON UNIT   10 WITH FORMAT: (10F13.0)           

         1     2     3     4     5     6     7     8     9    10    11    12    13    14    15    16    17
 .........................................................................................................
   1    0.0   0.0   0.0   0.0   0.0   0.0   0.0   0.0   0.0   0.0   0.0   0.0   0.0   0.0   0.0   0.0   0.0
   2    0.0  -0.2  -0.2  -0.2  -0.2  -0.2  -0.2  -0.2  -0.2  -0.2  -0.2  -0.2  -0.2  -0.2  -0.2  -0.2   0.0
   3    0.0  -0.2  -0.2  -0.2  -0.2  -0.2  -0.2  -0.2  -0.2  -0.2  -0.2  -0.2  -0.2  -0.2  -0.2  -0.2   0.0
   4    0.0  -0.2  -0.2  -0.2  -0.2  -0.2  -0.2  -0.2  -0.2  -0.2  -0.2  -0.2  -0.2  -0.2  -0.2  -0.2   0.0
   5    0.0  -0.2  -0.2  -0.2  -0.2  -0.2  -0.2  -0.2  -0.2  -0.2  -0.2  -0.2  -0.2  -0.2  -0.2  -0.2   0.0
   6    0.0  -0.2  -0.2  -0.2  -0.2  -0.2  -0.2  -0.2  -0.2  -0.2  -0.2  -0.2  -0.2  -0.2  -0.2  -0.2   0.0
   7    0.0  -0.2  -0.2  -0.2  -0.2  -0.2  -0.2  -0.2  -0.2  -0.2  -0.2  -0.2  -0.2  -0.2  -0.2  -0.2   0.0
   8    0.0  -0.2  -0.2  -0.2  -0.2  -0.2  -0.2  -0.2  -0.2  -0.2  -0.2  -0.2  -0.2  -0.2  -0.2  -0.2   0.0
   9    0.0  -0.2  -0.2  -0.2  -0.2  -0.2  -0.2  -0.2  -0.2  -0.2  -0.2  -0.2  -0.2  -0.2  -0.2  -0.2   0.0
  10    0.0  -0.2  -0.2  -0.2  -0.2  -0.2  -0.2  -0.2  -0.2  -0.2  -0.2  -0.2  -0.2  -0.2  -0.2  -0.2   0.0
  11    0.0  -0.2  -0.2  -0.2  -0.2  -0.2  -0.2  -0.2  -0.2  -0.2  -0.2  -0.2  -0.2  -0.2  -0.2  -0.2   0.0
  12    0.0  -0.2  -0.2  -0.2  -0.2  -0.2  -0.2  -0.2  -0.2  -0.2  -0.2  -0.2  -0.2  -0.2  -0.2  -0.2   0.0
  13    0.0  -0.2  -0.2  -0.2  -0.2  -0.2  -0.2  -0.2  -0.2  -0.2  -0.2  -0.2  -0.2  -0.2  -0.2  -0.2   0.0
  14    0.0  -0.2  -0.2  -0.2  -0.2  -0.2  -0.2  -0.2  -0.2  -0.2  -0.2  -0.2  -0.2  -0.2  -0.2  -0.2   0.0
  15    0.0  -0.2  -0.2  -0.2  -0.2  -0.2  -0.2  -0.2  -0.2  -0.2  -0.2  -0.2  -0.2  -0.2  -0.2  -0.2   0.0
  16    0.0  -0.2  -0.2  -0.2  -0.2  -0.2  -0.2  -0.2  -0.2  -0.2  -0.2  -0.2  -0.2  -0.2  -0.2  -0.2   0.0
  17    0.0   0.0   0.0   0.0   0.0   0.0   0.0   0.0   0.0   0.0   0.0   0.0   0.0   0.0   0.0   0.0   0.0


     0 Evapotranspiration parameters


     0 Recharge parameters
 TIMES FOR SPECIFIED-FLOW AND HEAD VALUES WILL BE READ ON UNIT  21 AND
 MULTIPLIED BY   1.000    .
     1 TIMES FOR SPECIFYING FLOWS AND HEADS:
                       1
                 ------------
                    0.000    

 CELL INDICIES AND SPECIFIED-HEAD VALUES WILL BE READ ON UNIT  21. HEAD VALUES
 WILL BE MULTIPLIED BY   1.000    .
 LAYER  ROW  COL IAUX             HEAD VALUES
 -------------------------------
    1    1    1   64   160.0    
    1    2    1   64   160.0    
    1    3    1   64   160.0    
    1    4    1   64   160.0    
    1    5    1   64   160.0    
    1    6    1   64   160.0    
    1    7    1   64   160.0    
    1    8    1   64   160.0    
    1    9    1   64   160.0    
    1   10    1   64   160.0    
    1   11    1   64   160.0    
    1   12    1   64   160.0    
    1   13    1   64   160.0    
    1   14    1   64   160.0    
    1   15    1   64   160.0    
    1   16    1   64   160.0    
    1   17    1   64   160.0    
    1    1   17   64   140.0    
    1    2   17   64   140.0    
    1    3   17   64   140.0    
    1    4   17   64   140.0    
    1    5   17   64   140.0    
    1    6   17   64   140.0    
    1    7   17   64   140.0    
    1    8   17   64   140.0    
    1    9   17   64   140.0    
    1   10   17   64   140.0    
    1   11   17   64   140.0    
    1   12   17   64   140.0    
    1   13   17   64   140.0    
    1   14   17   64   140.0    
    1   15   17   64   140.0    
    1   16   17   64   140.0    
    1   17   17   64   140.0    
    2    1    1   64   160.0    
    2    2    1   64   160.0    
    2    3    1   64   160.0    
    2    4    1   64   160.0    
    2    5    1   64   160.0    
    2    6    1   64   160.0    
    2    7    1   64   160.0    
    2    8    1   64   160.0    
    2    9    1   64   160.0    
    2   10    1   64   160.0    
    2   11    1   64   160.0    
    2   12    1   64   160.0    
    2   13    1   64   160.0    
    2   14    1   64   160.0    
    2   15    1   64   160.0    
    2   16    1   64   160.0    
    2   17    1   64   160.0    
    2    1   17   64   140.0    
    2    2   17   64   140.0    
    2    3   17   64   140.0    
    2    4   17   64   140.0    
    2    5   17   64   140.0    
    2    6   17   64   140.0    
    2    7   17   64   140.0    
    2    8   17   64   140.0    
    2    9   17   64   140.0    
    2   10   17   64   140.0    
    2   11   17   64   140.0    
    2   12   17   64   140.0    
    2   13   17   64   140.0    
    2   14   17   64   140.0    
    2   15   17   64   140.0    
    2   16   17   64   140.0    
    2   17   17   64   140.0    
    3    1    1   64   160.0    
    3    2    1   64   160.0    
    3    3    1   64   160.0    
    3    4    1   64   160.0    
    3    5    1   64   160.0    
    3    6    1   64   160.0    
    3    7    1   64   160.0    
    3    8    1   64   160.0    
    3    9    1   64   160.0    
    3   10    1   64   160.0    
    3   11    1   64   160.0    
    3   12    1   64   160.0    
    3   13    1   64   160.0    
    3   14    1   64   160.0    
    3   15    1   64   160.0    
    3   16    1   64   160.0    
    3   17    1   64   160.0    
    3    1   17   64   140.0    
    3    2   17   64   140.0    
    3    3   17   64   140.0    
    3    4   17   64   140.0    
    3    5   17   64   140.0    
    3    6   17   64   140.0    
    3    7   17   64   140.0    
    3    8   17   64   140.0    
    3    9   17   64   140.0    
    3   10   17   64   140.0    
    3   11   17   64   140.0    
    3   12   17   64   140.0    
    3   13   17   64   140.0    
    3   14   17   64   140.0    
    3   15   17   64   140.0    
    3   16   17   64   140.0    
    3   17   17   64   140.0    
    4    1    1   64   160.0    
    4    2    1   64   160.0    
    4    3    1   64   160.0    
    4    4    1   64   160.0    
    4    5    1   64   160.0    
    4    6    1   64   160.0    
    4    7    1   64   160.0    
    4    8    1   64   160.0    
    4    9    1   64   160.0    
    4   10    1   64   160.0    
    4   11    1   64   160.0    
    4   12    1   64   160.0    
    4   13    1   64   160.0    
    4   14    1   64   160.0    
    4   15    1   64   160.0    
    4   16    1   64   160.0    
    4   17    1   64   160.0    
    4    1   17   64   140.0    
    4    2   17   64   140.0    
    4    3   17   64   140.0    
    4    4   17   64   140.0    
    4    5   17   64   140.0    
    4    6   17   64   140.0    
    4    7   17   64   140.0    
    4    8   17   64   140.0    
    4    9   17   64   140.0    
    4   10   17   64   140.0    
    4   11   17   64   140.0    
    4   12   17   64   140.0    
    4   13   17   64   140.0    
    4   14   17   64   140.0    
    4   15   17   64   140.0    
    4   16   17   64   140.0    
    4   17   17   64   140.0    
    5    1    1   64   160.0    
    5    2    1   64   160.0    
    5    3    1   64   160.0    
    5    4    1   64   160.0    
    5    5    1   64   160.0    
    5    6    1   64   160.0    
    5    7    1   64   160.0    
    5    8    1   64   160.0    
    5    9    1   64   160.0    
    5   10    1   64   160.0    
    5   11    1   64   160.0    
    5   12    1   64   160.0    
    5   13    1   64   160.0    
    5   14    1   64   160.0    
    5   15    1   64   160.0    
    5   16    1   64   160.0    
    5   17    1   64   160.0    
    5    1   17   64   140.0    
    5    2   17   64   140.0    
    5    3   17   64   140.0    
    5    4   17   64   140.0    
    5    5   17   64   140.0    
    5    6   17   64   140.0    
    5    7   17   64   140.0    
    5    8   17   64   140.0    
    5    9   17   64   140.0    
    5   10   17   64   140.0    
    5   11   17   64   140.0    
    5   12   17   64   140.0    
    5   13   17   64   140.0    
    5   14   17   64   140.0    
    5   15   17   64   140.0    
    5   16   17   64   140.0    
    5   17   17   64   140.0    
    1    1    2   64   158.9    
    1    1    3   64   157.3    
    1    1    4   64   155.8    
    1    1    5   64   154.2    
    1    1    6   64   152.7    
    1    1    7   64   151.5    
    1    1    8   64   150.8    
    1    1    9   64   150.0    
    1    1   10   64   149.2    
    1    1   11   64   148.5    
    1    1   12   64   147.3    
    1    1   13   64   145.8    
    1    1   14   64   144.2    
    1    1   15   64   142.7    
    1    1   16   64   141.1    
    1   17    2   64   158.9    
    1   17    3   64   157.3    
    1   17    4   64   155.8    
    1   17    5   64   154.2    
    1   17    6   64   152.7    
    1   17    7   64   151.5    
    1   17    8   64   150.8    
    1   17    9   64   150.0    
    1   17   10   64   149.2    
    1   17   11   64   148.5    
    1   17   12   64   147.3    
    1   17   13   64   145.8    
    1   17   14   64   144.2    
    1   17   15   64   142.7    
    1   17   16   64   141.1    
    2    1    2   64   158.9    
    2    1    3   64   157.3    
    2    1    4   64   155.8    
    2    1    5   64   154.2    
    2    1    6   64   152.7    
    2    1    7   64   151.5    
    2    1    8   64   150.8    
    2    1    9   64   150.0    
    2    1   10   64   149.2    
    2    1   11   64   148.5    
    2    1   12   64   147.3    
    2    1   13   64   145.8    
    2    1   14   64   144.2    
    2    1   15   64   142.7    
    2    1   16   64   141.1    
    2   17    2   64   158.9    
    2   17    3   64   157.3    
    2   17    4   64   155.8    
    2   17    5   64   154.2    
    2   17    6   64   152.7    
    2   17    7   64   151.5    
    2   17    8   64   150.8    
    2   17    9   64   150.0    
    2   17   10   64   149.2    
    2   17   11   64   148.5    
    2   17   12   64   147.3    
    2   17   13   64   145.8    
    2   17   14   64   144.2    
    2   17   15   64   142.7    
    2   17   16   64   141.1    
    3    1    2   64   158.9    
    3    1    3   64   157.3    
    3    1    4   64   155.8    
    3    1    5   64   154.2    
    3    1    6   64   152.7    
    3    1    7   64   151.5    
    3    1    8   64   150.8    
    3    1    9   64   150.0    
    3    1   10   64   149.2    
    3    1   11   64   148.5    
    3    1   12   64   147.3    
    3    1   13   64   145.8    
    3    1   14   64   144.2    
    3    1   15   64   142.7    
    3    1   16   64   141.1    
    3   17    2   64   158.9    
    3   17    3   64   157.3    
    3   17    4   64   155.8    
    3   17    5   64   154.2    
    3   17    6   64   152.7    
    3   17    7   64   151.5    
    3   17    8   64   150.8    
    3   17    9   64   150.0    
    3   17   10   64   149.2    
    3   17   11   64   148.5    
    3   17   12   64   147.3    
    3   17   13   64   145.8    
    3   17   14   64   144.2    
    3   17   15   64   142.7    
    3   17   16   64   141.1    
    4    1    2   64   158.9    
    4    1    3   64   157.3    
    4    1    4   64   155.8    
    4    1    5   64   154.2    
    4    1    6   64   152.7    
    4    1    7   64   151.5    
    4    1    8   64   150.8    
    4    1    9   64   150.0    
    4    1   10   64   149.2    
    4    1   11   64   148.5    
    4    1   12   64   147.3    
    4    1   13   64   145.8    
    4    1   14   64   144.2    
    4    1   15   64   142.7    
    4    1   16   64   141.1    
    4   17    2   64   158.9    
    4   17    3   64   157.3    
    4   17    4   64   155.8    
    4   17    5   64   154.2    
    4   17    6   64   152.7    
    4   17    7   64   151.5    
    4   17    8   64   150.8    
    4   17    9   64   150.0    
    4   17   10   64   149.2    
    4   17   11   64   148.5    
    4   17   12   64   147.3    
    4   17   13   64   145.8    
    4   17   14   64   144.2    
    4   17   15   64   142.7    
    4   17   16   64   141.1    
    5    1    2   64   158.9    
    5    1    3   64   157.3    
    5    1    4   64   155.8    
    5    1    5   64   154.2    
    5    1    6   64   152.7    
    5    1    7   64   151.5    
    5    1    8   64   150.8    
    5    1    9   64   150.0    
    5    1   10   64   149.2    
    5    1   11   64   148.5    
    5    1   12   64   147.3    
    5    1   13   64   145.8    
    5    1   14   64   144.2    
    5    1   15   64   142.7    
    5    1   16   64   141.1    
    5   17    2   64   158.9    
    5   17    3   64   157.3    
    5   17    4   64   155.8    
    5   17    5   64   154.2    
    5   17    6   64   152.7    
    5   17    7   64   151.5    
    5   17    8   64   150.8    
    5   17    9   64   150.0    
    5   17   10   64   149.2    
    5   17   11   64   148.5    
    5   17   12   64   147.3    
    5   17   13   64   145.8    
    5   17   14   64   144.2    
    5   17   15   64   142.7    
    5   17   16   64   141.1    



   1 GAGING STATION WAS SPECIFIED.
     (Lakes are identified by a negative value of the Lake Number)
     RECORDS WILL BE WRITTEN TO SEPARATE OUTPUT FILE REPRESENTED BY FOLLOWING UNIT NUMBER:
 Lake Gages:
  GAGE #    LAKE     UNIT   OUTTYPE
       1      -1      37




1
                            STRESS PERIOD NO.    1, LENGTH =   5000.000    
                            -----------------------------------------------

                              NUMBER OF TIME STEPS =   100

                               MULTIPLIER FOR DELT =     1.020

                            INITIAL TIME STEP SIZE =   16.01381    



                         ET SURFACE
 READING ON UNIT   11 WITH FORMAT: (19F6.1)            

         1     2     3     4     5     6     7     8     9    10    11    12    13    14    15    16    17
 .........................................................................................................
   1  160.0 159.0 157.4 155.9 154.3 152.7 151.6 150.8 150.0 149.2 148.4 147.3 145.7 144.1 142.6 141.0 140.0
   2  160.0 159.0 157.4 155.9 154.3 152.7 151.6 150.8 150.0 149.2 148.4 147.3 145.7 144.1 142.6 141.0 140.0
   3  160.0 159.0 157.4 155.9 154.3 152.7 151.6 150.8 150.0 149.2 148.4 147.3 145.7 144.1 142.6 141.0 140.0
   4  160.0 159.0 157.4 155.9 154.3 152.7 151.6 150.8 150.0 149.2 148.4 147.3 145.7 144.1 142.6 141.0 140.0
   5  160.0 159.0 157.4 155.9 154.3 152.7 151.6 150.8 150.0 149.2 148.4 147.3 145.7 144.1 142.6 141.0 140.0
   6  160.0 159.0 157.4 155.9 154.3 152.7 151.6 150.8 150.0 149.2 148.4 147.3 145.7 144.1 142.6 141.0 140.0
   7  160.0 159.0 157.4 155.9 154.3 152.7 105.0 105.0 105.0 105.0 105.0 147.3 145.7 144.1 142.6 141.0 140.0
   8  160.0 159.0 157.4 155.9 154.3 152.7 105.0  95.0  95.0  95.0 105.0 147.3 145.7 144.1 142.6 141.0 140.0
   9  160.0 159.0 157.4 155.9 154.3 152.7 105.0  95.0  95.0  95.0 105.0 147.3 145.7 144.1 142.6 141.0 140.0
  10  160.0 159.0 157.4 155.9 154.3 152.7 105.0  95.0  95.0  95.0 105.0 147.3 145.7 144.1 142.6 141.0 140.0
  11  160.0 159.0 157.4 155.9 154.3 152.7 105.0 105.0 105.0 105.0 105.0 147.3 145.7 144.1 142.6 141.0 140.0
  12  160.0 159.0 157.4 155.9 154.3 152.7 151.6 150.8 150.0 149.2 148.4 147.3 145.7 144.1 142.6 141.0 140.0
  13  160.0 159.0 157.4 155.9 154.3 152.7 151.6 150.8 150.0 149.2 148.4 147.3 145.7 144.1 142.6 141.0 140.0
  14  160.0 159.0 157.4 155.9 154.3 152.7 151.6 150.8 150.0 149.2 148.4 147.3 145.7 144.1 142.6 141.0 140.0
  15  160.0 159.0 157.4 155.9 154.3 152.7 151.6 150.8 150.0 149.2 148.4 147.3 145.7 144.1 142.6 141.0 140.0
  16  160.0 159.0 157.4 155.9 154.3 152.7 151.6 150.8 150.0 149.2 148.4 147.3 145.7 144.1 142.6 141.0 140.0
  17  160.0 159.0 157.4 155.9 154.3 152.7 151.6 150.8 150.0 149.2 148.4 147.3 145.7 144.1 142.6 141.0 140.0

  EVAPOTRANSPIRATION RATE =  1.410000E-02

         EXTINCTION DEPTH =   15.0000    

                 RECHARGE =  1.160000E-02

 INITIAL LAKE STAGE:  LAKE    STAGE

                        1   110.000





                      LAKE ID ARRAY FOR LAYER   1
 READING ON UNIT   16 WITH FORMAT: (24I3)              

        1   2   3   4   5   6   7   8   9  10  11  12  13  14  15  16  17
 ........................................................................
   1    0   0   0   0   0   0   0   0   0   0   0   0   0   0   0   0   0
   2    0   0   0   0   0   0   0   0   0   0   0   0   0   0   0   0   0
   3    0   0   0   0   0   0   0   0   0   0   0   0   0   0   0   0   0
   4    0   0   0   0   0   0   0   0   0   0   0   0   0   0   0   0   0
   5    0   0   0   0   0   0   0   0   0   0   0   0   0   0   0   0   0
   6    0   0   0   0   0   0   0   0   0   0   0   0   0   0   0   0   0
   7    0   0   0   0   0   0   1   1   1   1   1   0   0   0   0   0   0
   8    0   0   0   0   0   0   1   1   1   1   1   0   0   0   0   0   0
   9    0   0   0   0   0   0   1   1   1   1   1   0   0   0   0   0   0
  10    0   0   0   0   0   0   1   1   1   1   1   0   0   0   0   0   0
  11    0   0   0   0   0   0   1   1   1   1   1   0   0   0   0   0   0
  12    0   0   0   0   0   0   0   0   0   0   0   0   0   0   0   0   0
  13    0   0   0   0   0   0   0   0   0   0   0   0   0   0   0   0   0
  14    0   0   0   0   0   0   0   0   0   0   0   0   0   0   0   0   0
  15    0   0   0   0   0   0   0   0   0   0   0   0   0   0   0   0   0
  16    0   0   0   0   0   0   0   0   0   0   0   0   0   0   0   0   0
  17    0   0   0   0   0   0   0   0   0   0   0   0   0   0   0   0   0



                      LAKE ID ARRAY FOR LAYER   2
 READING ON UNIT   16 WITH FORMAT: (24I3)              

        1   2   3   4   5   6   7   8   9  10  11  12  13  14  15  16  17
 ........................................................................
   1    0   0   0   0   0   0   0   0   0   0   0   0   0   0   0   0   0
   2    0   0   0   0   0   0   0   0   0   0   0   0   0   0   0   0   0
   3    0   0   0   0   0   0   0   0   0   0   0   0   0   0   0   0   0
   4    0   0   0   0   0   0   0   0   0   0   0   0   0   0   0   0   0
   5    0   0   0   0   0   0   0   0   0   0   0   0   0   0   0   0   0
   6    0   0   0   0   0   0   0   0   0   0   0   0   0   0   0   0   0
   7    0   0   0   0   0   0   0   0   0   0   0   0   0   0   0   0   0
   8    0   0   0   0   0   0   0   1   1   1   0   0   0   0   0   0   0
   9    0   0   0   0   0   0   0   1   1   1   0   0   0   0   0   0   0
  10    0   0   0   0   0   0   0   1   1   1   0   0   0   0   0   0   0
  11    0   0   0   0   0   0   0   0   0   0   0   0   0   0   0   0   0
  12    0   0   0   0   0   0   0   0   0   0   0   0   0   0   0   0   0
  13    0   0   0   0   0   0   0   0   0   0   0   0   0   0   0   0   0
  14    0   0   0   0   0   0   0   0   0   0   0   0   0   0   0   0   0
  15    0   0   0   0   0   0   0   0   0   0   0   0   0   0   0   0   0
  16    0   0   0   0   0   0   0   0   0   0   0   0   0   0   0   0   0
  17    0   0   0   0   0   0   0   0   0   0   0   0   0   0   0   0   0

            LAKE ID ARRAY =              0 FOR LAYER   3

            LAKE ID ARRAY =              0 FOR LAYER   4

            LAKE ID ARRAY =              0 FOR LAYER   5



   LAKEBED LEAKANCE ARRAY =  0.100000     FOR LAYER   1

   LAKEBED LEAKANCE ARRAY =  0.100000     FOR LAYER   2

   LAKEBED LEAKANCE ARRAY =  0.100000     FOR LAYER   3

   LAKEBED LEAKANCE ARRAY =  0.100000     FOR LAYER   4

   LAKEBED LEAKANCE ARRAY =  0.100000     FOR LAYER   5

       LOCATIONS, LAKE #, INTERFACE TYPE FOR GRID CELLS ADJACENT TO LAKES:
     -----------------------------------------------------------------------
     LAYER #    ROW #    COLUMN #   LAKE #  INTERFACE TYPE  LAKEBED LEAKANCE
         1         7         6         1         2             0.10000
         1         8         6         1         2             0.10000
         1         9         6         1         2             0.10000
         1        10         6         1         2             0.10000
         1        11         6         1         2             0.10000
         1         6         7         1         3             0.10000
         2         7         7         1         6             0.10000
         2         8         7         1         6             0.10000
         2         8         7         1         2             0.10000
         2         9         7         1         6             0.10000
         2         9         7         1         2             0.10000
         2        10         7         1         6             0.10000
         2        10         7         1         2             0.10000
         2        11         7         1         6             0.10000
         1        12         7         1         4             0.10000
         1         6         8         1         3             0.10000
         2         7         8         1         6             0.10000
         2         7         8         1         3             0.10000
         3         8         8         1         6             0.10000
         3         9         8         1         6             0.10000
         3        10         8         1         6             0.10000
         2        11         8         1         6             0.10000
         2        11         8         1         4             0.10000
         1        12         8         1         4             0.10000
         1         6         9         1         3             0.10000
         2         7         9         1         6             0.10000
         2         7         9         1         3             0.10000
         3         8         9         1         6             0.10000
         3         9         9         1         6             0.10000
         3        10         9         1         6             0.10000
         2        11         9         1         6             0.10000
         2        11         9         1         4             0.10000
         1        12         9         1         4             0.10000
         1         6        10         1         3             0.10000
         2         7        10         1         6             0.10000
         2         7        10         1         3             0.10000
         3         8        10         1         6             0.10000
         3         9        10         1         6             0.10000
         3        10        10         1         6             0.10000
         2        11        10         1         6             0.10000
         2        11        10         1         4             0.10000
         1        12        10         1         4             0.10000
         1         6        11         1         3             0.10000
         2         7        11         1         6             0.10000
         2         8        11         1         6             0.10000
         2         8        11         1         1             0.10000
         2         9        11         1         6             0.10000
         2         9        11         1         1             0.10000
         2        10        11         1         6             0.10000
         2        10        11         1         1             0.10000
         2        11        11         1         6             0.10000
         1        12        11         1         4             0.10000
         1         7        12         1         1             0.10000
         1         8        12         1         1             0.10000
         1         9        12         1         1             0.10000
         1        10        12         1         1             0.10000
         1        11        12         1         1             0.10000

     NUMBER OF LAKE-AQUIFER CELL INTERFACES =    57


 STAGE/VOLUME RELATION FOR LAKE  1

   STAGE    VOLUME

   97.0000  0.000E+00
   97.2000  4.500E+05
   97.4000  9.000E+05
   97.6000  1.350E+06
   97.8000  1.800E+06
   98.0000  2.250E+06
   98.2000  2.700E+06
   98.4000  3.150E+06
   98.6000  3.600E+06
   98.8000  4.050E+06
   99.0000  4.500E+06
   99.2000  4.950E+06
   99.4000  5.400E+06
   99.6000  5.850E+06
   99.8000  6.300E+06
  100.0000  6.750E+06
  100.2000  7.200E+06
  100.4000  7.650E+06
  100.6000  8.100E+06
  100.8000  8.550E+06
  101.0000  9.000E+06
  101.2000  9.450E+06
  101.4000  9.900E+06
  101.6000  1.035E+07
  101.8000  1.080E+07
  102.0000  1.125E+07
  102.2000  1.170E+07
  102.4000  1.215E+07
  102.6000  1.260E+07
  102.8000  1.305E+07
  103.0000  1.350E+07
  103.2000  1.395E+07
  103.4000  1.440E+07
  103.6000  1.485E+07
  103.8000  1.530E+07
  104.0000  1.575E+07
  104.2000  1.620E+07
  104.4000  1.665E+07
  104.6000  1.710E+07
  104.8000  1.755E+07
  105.0000  1.800E+07
  105.2000  1.845E+07
  105.4000  1.890E+07
  105.6000  1.935E+07
  105.8000  1.980E+07
  106.0000  2.025E+07
  106.2000  2.070E+07
  106.4000  2.115E+07
  106.6000  2.160E+07
  106.8000  2.205E+07
  107.0000  2.250E+07
  107.2000  2.375E+07
  107.4000  2.500E+07
  107.6000  2.625E+07
  107.8000  2.750E+07
  108.0000  2.875E+07
  108.2000  3.000E+07
  108.4000  3.125E+07
  108.6000  3.250E+07
  108.8000  3.375E+07
  109.0000  3.500E+07
  109.2000  3.625E+07
  109.4000  3.750E+07
  109.6000  3.875E+07
  109.8000  4.000E+07
  110.0000  4.125E+07
  110.2000  4.250E+07
  110.4000  4.375E+07
  110.6000  4.500E+07
  110.8000  4.625E+07
  111.0000  4.750E+07
  111.2000  4.875E+07
  111.4000  5.000E+07
  111.6000  5.125E+07
  111.8000  5.250E+07
  112.0000  5.375E+07
  112.2000  5.500E+07
  112.4000  5.625E+07
  112.6000  5.750E+07
  112.8000  5.875E+07
  113.0000  6.000E+07
  113.2000  6.125E+07
  113.4000  6.250E+07
  113.6000  6.375E+07
  113.8000  6.500E+07
  114.0000  6.625E+07
  114.2000  6.750E+07
  114.4000  6.875E+07
  114.6000  7.000E+07
  114.8000  7.125E+07
  115.0000  7.250E+07
  115.2000  7.375E+07
  115.4000  7.500E+07
  115.6000  7.625E+07
  115.8000  7.750E+07
  116.0000  7.875E+07
  116.2000  8.000E+07
  116.4000  8.125E+07
  116.6000  8.250E+07
  116.8000  8.375E+07
  117.0000  8.500E+07
  117.2000  8.625E+07
  117.4000  8.750E+07
  117.6000  8.875E+07
  117.8000  9.000E+07
  118.0000  9.125E+07
  118.2000  9.250E+07
  118.4000  9.375E+07
  118.6000  9.500E+07
  118.8000  9.625E+07
  119.0000  9.750E+07
  119.2000  9.875E+07
  119.4000  1.000E+08
  119.6000  1.012E+08
  119.8000  1.025E+08
  120.0000  1.038E+08
  120.2000  1.050E+08
  120.4000  1.062E+08
  120.6000  1.075E+08
  120.8000  1.088E+08
  121.0000  1.100E+08
  121.2000  1.112E+08
  121.4000  1.125E+08
  121.6000  1.138E+08
  121.8000  1.150E+08
  122.0000  1.162E+08
  122.2000  1.175E+08
  122.4000  1.188E+08
  122.6000  1.200E+08
  122.8000  1.212E+08
  123.0000  1.225E+08
  123.2000  1.238E+08
  123.4000  1.250E+08
  123.6000  1.262E+08
  123.8000  1.275E+08
  124.0000  1.288E+08
  124.2000  1.300E+08
  124.4000  1.312E+08
  124.6000  1.325E+08
  124.8000  1.338E+08
  125.0000  1.350E+08
  125.2000  1.362E+08
  125.4000  1.375E+08
  125.6000  1.388E+08
  125.8000  1.400E+08
  126.0000  1.412E+08
  126.2000  1.425E+08
  126.4000  1.438E+08
  126.6000  1.450E+08
  126.8000  1.462E+08
  127.0000  1.475E+08


 NUMBER OF CONNECTED LAKE SYSTEMS IN SIMULATION IS   0

 LAKE       PRECIP     EVAP     RUNOFF   WITHDRAW   BOTTOM     AREA
----------------------------------------------------------------------
   1     1.160E-02 1.030E-02 0.000E+00  0.000E+00 9.700E+01 6.250E+06




         C               INTERFACE CONDUCTANCES BETWEEN LAKE AND AQUIFER CELLS
   L     O          (IF TYPE = 0, CONDUCTANCE (L^2/T) IS BETWEEN AQUIFER CELL AND OVERLYING LAKE CELL.)
   A     L  L  T    (IF TYPE = 1 TO 4, CONDUCTANCES ARE PER UNIT SATURATED THICKNESS (L/T).)
   Y  R  U  A  Y
   E  O  M  K  P                        LAKEBED      C O N D U C T A N C E S
   R  W  N  E  E     DELTA Y   DELTA X  LEAKANCE   LAKEBED   AQUIFER  COMBINED
 _______________________________________________________________________________
   1  7  6  1  2    5.00E+02  1.00E+03  1.00E-01  5.00E+01  3.00E+01  1.88E+01
   1  8  6  1  2    5.00E+02  1.00E+03  1.00E-01  5.00E+01  3.00E+01  1.88E+01
   1  9  6  1  2    5.00E+02  1.00E+03  1.00E-01  5.00E+01  3.00E+01  1.88E+01
   1 10  6  1  2    5.00E+02  1.00E+03  1.00E-01  5.00E+01  3.00E+01  1.88E+01
   1 11  6  1  2    5.00E+02  1.00E+03  1.00E-01  5.00E+01  3.00E+01  1.88E+01
   1  6  7  1  3    1.00E+03  5.00E+02  1.00E-01  5.00E+01  3.00E+01  1.88E+01
   2  7  7  1  6    5.00E+02  5.00E+02  1.00E-01  2.50E+04  1.50E+06  2.46E+04
   2  8  7  1  6    5.00E+02  5.00E+02  1.00E-01  2.50E+04  1.50E+06  2.46E+04
   2  8  7  1  2    5.00E+02  5.00E+02  1.00E-01  5.00E+01  6.00E+01  2.73E+01
   2  9  7  1  6    5.00E+02  5.00E+02  1.00E-01  2.50E+04  1.50E+06  2.46E+04
   2  9  7  1  2    5.00E+02  5.00E+02  1.00E-01  5.00E+01  6.00E+01  2.73E+01
   2 10  7  1  6    5.00E+02  5.00E+02  1.00E-01  2.50E+04  1.50E+06  2.46E+04
   2 10  7  1  2    5.00E+02  5.00E+02  1.00E-01  5.00E+01  6.00E+01  2.73E+01
   2 11  7  1  6    5.00E+02  5.00E+02  1.00E-01  2.50E+04  1.50E+06  2.46E+04
   1 12  7  1  4    1.00E+03  5.00E+02  1.00E-01  5.00E+01  3.00E+01  1.88E+01
   1  6  8  1  3    1.00E+03  5.00E+02  1.00E-01  5.00E+01  3.00E+01  1.88E+01
   2  7  8  1  6    5.00E+02  5.00E+02  1.00E-01  2.50E+04  1.50E+06  2.46E+04
   2  7  8  1  3    5.00E+02  5.00E+02  1.00E-01  5.00E+01  6.00E+01  2.73E+01
   3  8  8  1  6    5.00E+02  5.00E+02  1.00E-01  2.50E+04  1.50E+06  2.46E+04
   3  9  8  1  6    5.00E+02  5.00E+02  1.00E-01  2.50E+04  1.50E+06  2.46E+04
   3 10  8  1  6    5.00E+02  5.00E+02  1.00E-01  2.50E+04  1.50E+06  2.46E+04
   2 11  8  1  6    5.00E+02  5.00E+02  1.00E-01  2.50E+04  1.50E+06  2.46E+04
   2 11  8  1  4    5.00E+02  5.00E+02  1.00E-01  5.00E+01  6.00E+01  2.73E+01
   1 12  8  1  4    1.00E+03  5.00E+02  1.00E-01  5.00E+01  3.00E+01  1.88E+01
   1  6  9  1  3    1.00E+03  5.00E+02  1.00E-01  5.00E+01  3.00E+01  1.88E+01
   2  7  9  1  6    5.00E+02  5.00E+02  1.00E-01  2.50E+04  1.50E+06  2.46E+04
   2  7  9  1  3    5.00E+02  5.00E+02  1.00E-01  5.00E+01  6.00E+01  2.73E+01
   3  8  9  1  6    5.00E+02  5.00E+02  1.00E-01  2.50E+04  1.50E+06  2.46E+04
   3  9  9  1  6    5.00E+02  5.00E+02  1.00E-01  2.50E+04  1.50E+06  2.46E+04
   3 10  9  1  6    5.00E+02  5.00E+02  1.00E-01  2.50E+04  1.50E+06  2.46E+04
   2 11  9  1  6    5.00E+02  5.00E+02  1.00E-01  2.50E+04  1.50E+06  2.46E+04
   2 11  9  1  4    5.00E+02  5.00E+02  1.00E-01  5.00E+01  6.00E+01  2.73E+01
   1 12  9  1  4    1.00E+03  5.00E+02  1.00E-01  5.00E+01  3.00E+01  1.88E+01
   1  6 10  1  3    1.00E+03  5.00E+02  1.00E-01  5.00E+01  3.00E+01  1.88E+01
   2  7 10  1  6    5.00E+02  5.00E+02  1.00E-01  2.50E+04  1.50E+06  2.46E+04
   2  7 10  1  3    5.00E+02  5.00E+02  1.00E-01  5.00E+01  6.00E+01  2.73E+01
   3  8 10  1  6    5.00E+02  5.00E+02  1.00E-01  2.50E+04  1.50E+06  2.46E+04
   3  9 10  1  6    5.00E+02  5.00E+02  1.00E-01  2.50E+04  1.50E+06  2.46E+04
   3 10 10  1  6    5.00E+02  5.00E+02  1.00E-01  2.50E+04  1.50E+06  2.46E+04
   2 11 10  1  6    5.00E+02  5.00E+02  1.00E-01  2.50E+04  1.50E+06  2.46E+04
   2 11 10  1  4    5.00E+02  5.00E+02  1.00E-01  5.00E+01  6.00E+01  2.73E+01
   1 12 10  1  4    1.00E+03  5.00E+02  1.00E-01  5.00E+01  3.00E+01  1.88E+01
   1  6 11  1  3    1.00E+03  5.00E+02  1.00E-01  5.00E+01  3.00E+01  1.88E+01
   2  7 11  1  6    5.00E+02  5.00E+02  1.00E-01  2.50E+04  1.50E+06  2.46E+04
   2  8 11  1  6    5.00E+02  5.00E+02  1.00E-01  2.50E+04  1.50E+06  2.46E+04
   2  8 11  1  1    5.00E+02  5.00E+02  1.00E-01  5.00E+01  6.00E+01  2.73E+01
   2  9 11  1  6    5.00E+02  5.00E+02  1.00E-01  2.50E+04  1.50E+06  2.46E+04
   2  9 11  1  1    5.00E+02  5.00E+02  1.00E-01  5.00E+01  6.00E+01  2.73E+01
   2 10 11  1  6    5.00E+02  5.00E+02  1.00E-01  2.50E+04  1.50E+06  2.46E+04
   2 10 11  1  1    5.00E+02  5.00E+02  1.00E-01  5.00E+01  6.00E+01  2.73E+01
   2 11 11  1  6    5.00E+02  5.00E+02  1.00E-01  2.50E+04  1.50E+06  2.46E+04
   1 12 11  1  4    1.00E+03  5.00E+02  1.00E-01  5.00E+01  3.00E+01  1.88E+01
   1  7 12  1  1    5.00E+02  1.00E+03  1.00E-01  5.00E+01  3.00E+01  1.88E+01
   1  8 12  1  1    5.00E+02  1.00E+03  1.00E-01  5.00E+01  3.00E+01  1.88E+01
   1  9 12  1  1    5.00E+02  1.00E+03  1.00E-01  5.00E+01  3.00E+01  1.88E+01
   1 10 12  1  1    5.00E+02  1.00E+03  1.00E-01  5.00E+01  3.00E+01  1.88E+01
   1 11 12  1  1    5.00E+02  1.00E+03  1.00E-01  5.00E+01  3.00E+01  1.88E+01
 
 SOLVING FOR HEAD 

 AVERAGE SEED = 0.00000194
 MINIMUM SEED = 0.00000137

     5 ITERATION PARAMETERS CALCULATED FROM AVERAGE SEED:

  0.000000E+00 0.962690E+00 0.998608E+00 0.999948E+00 0.999998E+00

     9 ITERATIONS FOR TIME STEP   1 IN STRESS PERIOD    1

 MAXIMUM HEAD CHANGE FOR EACH ITERATION:

    HEAD CHANGE   HEAD CHANGE   HEAD CHANGE   HEAD CHANGE   HEAD CHANGE
  LAYER,ROW,COL LAYER,ROW,COL LAYER,ROW,COL LAYER,ROW,COL LAYER,ROW,COL
 ----------------------------------------------------------------------
      11.30         2.624        0.9949        0.1654        0.1844E-01
  (  5, 16,  2) (  3, 16,  2) (  5,  9,  2) (  3, 10,  2) (  1, 10,  2)
     0.1629E-02    0.6520E-03    0.2186E-03    0.4884E-04
  (  1,  8,  2) (  5,  9,  2) (  4, 10,  2) (  5,  9,  2)


 HEAD/DRAWDOWN PRINTOUT FLAG = 0     TOTAL BUDGET PRINTOUT FLAG = 1
 CELL-BY-CELL FLOW TERM FLAG = 1

 OUTPUT FLAGS FOR ALL LAYERS ARE THE SAME:
   HEAD    DRAWDOWN  HEAD  DRAWDOWN
 PRINTOUT  PRINTOUT  SAVE    SAVE
 ----------------------------------
     0         0       0       0


     0  LAKE CELLS ARE DRY.

 PERIOD     1     TIME STEP     1     TIME STEP LENGTH  1.6014E+01
 PERIOD TIME  1.6014E+01     TOTAL SIMULATION TIME  1.6014E+01


                 HYDROLOGIC BUDGET SUMMARIES FOR SIMULATED LAKES
     (ALL FLUID FLUXES ARE VOLUMES ADDED TO THE LAKE DURING PRESENT TIME STEP)
     -------------------------------------------------------------------------
 LAKE   STAGE     PRECIP       EVAP       RUNOFF
   1   110.27  1.1610E+06  1.0309E+06  0.0000E+00

            GROUND WATER            SURFACE WATER
 LAKE    INFLOW     OUTFLOW      INFLOW     OUTFLOW
   1  1.5876E+06  0.0000E+00  0.0000E+00  0.0000E+00

         WATER    CONNECTED LAKE   UPDATED     TIME-STEP          STAGE CHANGE
 LAKE     USE         INFLUX        VOLUME    SURFACE AREA   TIME STEP  CUMULATIVE
   1   0.0000E+00   0.0000E+00   4.2967E+07    6.2500E+06   2.7476E-01  2.7476E-01
 --------------------------------------------------------------------------------



            CUMULATIVE HYDROLOGIC BUDGET SUMMARIES FOR SIMULATED LAKES
     (ALL FLUID FLUXES ARE SUMS OF VOLUMES ADDED TO THE LAKE SINCE INITIAL TIME)
     ---------------------------------------------------------------------------
 LAKE       PRECIP       EVAP       RUNOFF
   1     1.1610E+06  1.0309E+06  0.0000E+00

            GROUND WATER            SURFACE WATER
 LAKE    INFLOW     OUTFLOW      INFLOW     OUTFLOW
   1  1.5876E+06  0.0000E+00  0.0000E+00  0.0000E+00

         WATER    CONNECTED LAKE
 LAKE     USE         INFLUX
   1   0.0000E+00   0.0000E+00
 --------------------------------------------------------------------------------

1
  VOLUMETRIC BUDGET FOR ENTIRE MODEL AT END OF TIME STEP  1 IN STRESS PERIOD   1
  ------------------------------------------------------------------------------

     CUMULATIVE VOLUMES      L**3       RATES FOR THIS TIME STEP      L**3/T
     ------------------                 ------------------------

           IN:                                      IN:
           ---                                      ---
             STORAGE =       33100.8984               STORAGE =        2067.0225
       CONSTANT HEAD =    61557064.0000         CONSTANT HEAD =     3843999.2500
                  ET =           0.0000                    ET =           0.0000
            RECHARGE =    27864024.0000              RECHARGE =     1740000.0000
     SPECIFIED FLOWS =           0.0000       SPECIFIED FLOWS =           0.0000
       LAKE  SEEPAGE =           0.0000         LAKE  SEEPAGE =           0.0000

            TOTAL IN =    89454192.0000              TOTAL IN =     5586066.5000

          OUT:                                     OUT:
          ----                                     ----
             STORAGE =    87866624.0000               STORAGE =     5486929.0000
       CONSTANT HEAD =           0.0000         CONSTANT HEAD =           0.0000
                  ET =           0.0000                    ET =           0.0000
            RECHARGE =           0.0000              RECHARGE =           0.0000
     SPECIFIED FLOWS =           0.0000       SPECIFIED FLOWS =           0.0000
       LAKE  SEEPAGE =     1587643.5000         LAKE  SEEPAGE =       99142.1641

           TOTAL OUT =    89454264.0000             TOTAL OUT =     5586071.0000

            IN - OUT =         -78.6016              IN - OUT =          -4.8916

 PERCENT DISCREPANCY =           0.00     PERCENT DISCREPANCY =           0.00






          TIME SUMMARY AT END OF TIME STEP   1 IN STRESS PERIOD    1
                    SECONDS     MINUTES      HOURS       DAYS        YEARS
                    -----------------------------------------------------------
   TIME STEP LENGTH 1.38359E+06  23060.      384.33      16.014     4.38434E-02
 STRESS PERIOD TIME 1.38359E+06  23060.      384.33      16.014     4.38434E-02
         TOTAL TIME 1.38359E+06  23060.      384.33      16.014     4.38434E-02
1
 
 SOLVING FOR HEAD 
     8 ITERATIONS FOR TIME STEP   2 IN STRESS PERIOD    1

 MAXIMUM HEAD CHANGE FOR EACH ITERATION:

    HEAD CHANGE   HEAD CHANGE   HEAD CHANGE   HEAD CHANGE   HEAD CHANGE
  LAYER,ROW,COL LAYER,ROW,COL LAYER,ROW,COL LAYER,ROW,COL LAYER,ROW,COL
 ----------------------------------------------------------------------
      8.299         2.350        0.8296        0.1189        0.1407E-01
  (  1,  2,  2) (  5, 10,  2) (  5,  9,  2) (  3, 10,  2) (  4, 11,  3)
     0.9433E-03    0.2194E-03    0.6909E-04
  (  2, 16,  9) (  4,  9,  2) (  3, 10,  2)


 HEAD/DRAWDOWN PRINTOUT FLAG = 0     TOTAL BUDGET PRINTOUT FLAG = 0
 CELL-BY-CELL FLOW TERM FLAG = 1

 OUTPUT FLAGS FOR ALL LAYERS ARE THE SAME:
   HEAD    DRAWDOWN  HEAD  DRAWDOWN
 PRINTOUT  PRINTOUT  SAVE    SAVE
 ----------------------------------
     0         0       0       0


     0  LAKE CELLS ARE DRY.

 PERIOD     1     TIME STEP     2     TIME STEP LENGTH  1.6334E+01
 PERIOD TIME  3.2348E+01     TOTAL SIMULATION TIME  3.2348E+01


                 HYDROLOGIC BUDGET SUMMARIES FOR SIMULATED LAKES
     (ALL FLUID FLUXES ARE VOLUMES ADDED TO THE LAKE DURING PRESENT TIME STEP)
     -------------------------------------------------------------------------
 LAKE   STAGE     PRECIP       EVAP       RUNOFF
   1   110.56  1.1842E+06  1.0515E+06  0.0000E+00

            GROUND WATER            SURFACE WATER
 LAKE    INFLOW     OUTFLOW      INFLOW     OUTFLOW
   1  1.6245E+06  0.0000E+00  0.0000E+00  0.0000E+00

         WATER    CONNECTED LAKE   UPDATED     TIME-STEP          STAGE CHANGE
 LAKE     USE         INFLUX        VOLUME    SURFACE AREA   TIME STEP  CUMULATIVE
   1   0.0000E+00   0.0000E+00   4.4724E+07    6.2500E+06   2.8113E-01  5.5589E-01
 --------------------------------------------------------------------------------



            CUMULATIVE HYDROLOGIC BUDGET SUMMARIES FOR SIMULATED LAKES
     (ALL FLUID FLUXES ARE SUMS OF VOLUMES ADDED TO THE LAKE SINCE INITIAL TIME)
     ---------------------------------------------------------------------------
 LAKE       PRECIP       EVAP       RUNOFF
   1     2.3452E+06  2.0824E+06  0.0000E+00

            GROUND WATER            SURFACE WATER
 LAKE    INFLOW     OUTFLOW      INFLOW     OUTFLOW
   1  3.2121E+06  0.0000E+00  0.0000E+00  0.0000E+00

         WATER    CONNECTED LAKE
 LAKE     USE         INFLUX
   1   0.0000E+00   0.0000E+00
 --------------------------------------------------------------------------------

 
 SOLVING FOR HEAD 
     8 ITERATIONS FOR TIME STEP   3 IN STRESS PERIOD    1

 MAXIMUM HEAD CHANGE FOR EACH ITERATION:

    HEAD CHANGE   HEAD CHANGE   HEAD CHANGE   HEAD CHANGE   HEAD CHANGE
  LAYER,ROW,COL LAYER,ROW,COL LAYER,ROW,COL LAYER,ROW,COL LAYER,ROW,COL
 ----------------------------------------------------------------------
      5.425         2.033        0.6705        0.9136E-01    0.1202E-01
  (  1,  2,  2) (  5, 10,  2) (  5,  8,  2) (  3, 11,  2) (  4, 11,  3)
     0.8335E-03    0.1548E-03    0.4130E-04
  (  2, 16,  9) (  5, 16, 10) (  3, 16, 11)


 HEAD/DRAWDOWN PRINTOUT FLAG = 0     TOTAL BUDGET PRINTOUT FLAG = 0
 CELL-BY-CELL FLOW TERM FLAG = 1

 OUTPUT FLAGS FOR ALL LAYERS ARE THE SAME:
   HEAD    DRAWDOWN  HEAD  DRAWDOWN
 PRINTOUT  PRINTOUT  SAVE    SAVE
 ----------------------------------
     0         0       0       0


     0  LAKE CELLS ARE DRY.

 PERIOD     1     TIME STEP     3     TIME STEP LENGTH  1.6661E+01
 PERIOD TIME  4.9009E+01     TOTAL SIMULATION TIME  4.9009E+01


                 HYDROLOGIC BUDGET SUMMARIES FOR SIMULATED LAKES
     (ALL FLUID FLUXES ARE VOLUMES ADDED TO THE LAKE DURING PRESENT TIME STEP)
     -------------------------------------------------------------------------
 LAKE   STAGE     PRECIP       EVAP       RUNOFF
   1   110.85  1.2079E+06  1.0725E+06  0.0000E+00

            GROUND WATER            SURFACE WATER
 LAKE    INFLOW     OUTFLOW      INFLOW     OUTFLOW
   1  1.7189E+06  0.0000E+00  0.0000E+00  0.0000E+00

         WATER    CONNECTED LAKE   UPDATED     TIME-STEP          STAGE CHANGE
 LAKE     USE         INFLUX        VOLUME    SURFACE AREA   TIME STEP  CUMULATIVE
   1   0.0000E+00   0.0000E+00   4.6579E+07    6.2500E+06   2.9671E-01  8.5261E-01
 --------------------------------------------------------------------------------



            CUMULATIVE HYDROLOGIC BUDGET SUMMARIES FOR SIMULATED LAKES
     (ALL FLUID FLUXES ARE SUMS OF VOLUMES ADDED TO THE LAKE SINCE INITIAL TIME)
     ---------------------------------------------------------------------------
 LAKE       PRECIP       EVAP       RUNOFF
   1     3.5531E+06  3.1549E+06  0.0000E+00

            GROUND WATER            SURFACE WATER
 LAKE    INFLOW     OUTFLOW      INFLOW     OUTFLOW
   1  4.9310E+06  0.0000E+00  0.0000E+00  0.0000E+00

         WATER    CONNECTED LAKE
 LAKE     USE         INFLUX
   1   0.0000E+00   0.0000E+00
 --------------------------------------------------------------------------------

 
 SOLVING FOR HEAD 
     8 ITERATIONS FOR TIME STEP   4 IN STRESS PERIOD    1

 MAXIMUM HEAD CHANGE FOR EACH ITERATION:

    HEAD CHANGE   HEAD CHANGE   HEAD CHANGE   HEAD CHANGE   HEAD CHANGE
  LAYER,ROW,COL LAYER,ROW,COL LAYER,ROW,COL LAYER,ROW,COL LAYER,ROW,COL
 ----------------------------------------------------------------------
      3.706         1.686        0.5344        0.7213E-01    0.1019E-01
  (  1,  3,  2) (  5, 10,  2) (  5,  8,  2) (  3, 11,  2) (  4, 11,  3)
     0.7413E-03    0.1314E-03    0.3394E-04
  (  2, 16,  9) (  5, 16, 10) (  3, 16, 11)


 HEAD/DRAWDOWN PRINTOUT FLAG = 0     TOTAL BUDGET PRINTOUT FLAG = 0
 CELL-BY-CELL FLOW TERM FLAG = 1

 OUTPUT FLAGS FOR ALL LAYERS ARE THE SAME:
   HEAD    DRAWDOWN  HEAD  DRAWDOWN
 PRINTOUT  PRINTOUT  SAVE    SAVE
 ----------------------------------
     0         0       0       0


     0  LAKE CELLS ARE DRY.

 PERIOD     1     TIME STEP     4     TIME STEP LENGTH  1.6994E+01
 PERIOD TIME  6.6003E+01     TOTAL SIMULATION TIME  6.6003E+01


                 HYDROLOGIC BUDGET SUMMARIES FOR SIMULATED LAKES
     (ALL FLUID FLUXES ARE VOLUMES ADDED TO THE LAKE DURING PRESENT TIME STEP)
     -------------------------------------------------------------------------
 LAKE   STAGE     PRECIP       EVAP       RUNOFF
   1   111.17  1.2321E+06  1.0940E+06  0.0000E+00

            GROUND WATER            SURFACE WATER
 LAKE    INFLOW     OUTFLOW      INFLOW     OUTFLOW
   1  1.8319E+06  0.0000E+00  0.0000E+00  0.0000E+00

         WATER    CONNECTED LAKE   UPDATED     TIME-STEP          STAGE CHANGE
 LAKE     USE         INFLUX        VOLUME    SURFACE AREA   TIME STEP  CUMULATIVE
   1   0.0000E+00   0.0000E+00   4.8548E+07    6.2500E+06   3.1515E-01  1.1678E+00
 --------------------------------------------------------------------------------



            CUMULATIVE HYDROLOGIC BUDGET SUMMARIES FOR SIMULATED LAKES
     (ALL FLUID FLUXES ARE SUMS OF VOLUMES ADDED TO THE LAKE SINCE INITIAL TIME)
     ---------------------------------------------------------------------------
 LAKE       PRECIP       EVAP       RUNOFF
   1     4.7852E+06  4.2489E+06  0.0000E+00

            GROUND WATER            SURFACE WATER
 LAKE    INFLOW     OUTFLOW      INFLOW     OUTFLOW
   1  6.7629E+06  0.0000E+00  0.0000E+00  0.0000E+00

         WATER    CONNECTED LAKE
 LAKE     USE         INFLUX
   1   0.0000E+00   0.0000E+00
 --------------------------------------------------------------------------------

 
 SOLVING FOR HEAD 
     8 ITERATIONS FOR TIME STEP   5 IN STRESS PERIOD    1

 MAXIMUM HEAD CHANGE FOR EACH ITERATION:

    HEAD CHANGE   HEAD CHANGE   HEAD CHANGE   HEAD CHANGE   HEAD CHANGE
  LAYER,ROW,COL LAYER,ROW,COL LAYER,ROW,COL LAYER,ROW,COL LAYER,ROW,COL
 ----------------------------------------------------------------------
      2.791         1.369        0.5129        0.6694E-01    0.8611E-02
  (  1, 15,  3) (  5, 10,  2) (  5,  9,  3) (  4, 10,  3) (  3, 11,  3)
     0.5683E-03   -0.1319E-03   -0.3981E-04
  (  2, 16,  9) (  5,  8,  3) (  4,  9,  3)


 HEAD/DRAWDOWN PRINTOUT FLAG = 0     TOTAL BUDGET PRINTOUT FLAG = 0
 CELL-BY-CELL FLOW TERM FLAG = 1

 OUTPUT FLAGS FOR ALL LAYERS ARE THE SAME:
   HEAD    DRAWDOWN  HEAD  DRAWDOWN
 PRINTOUT  PRINTOUT  SAVE    SAVE
 ----------------------------------
     0         0       0       0


     0  LAKE CELLS ARE DRY.

 PERIOD     1     TIME STEP     5     TIME STEP LENGTH  1.7334E+01
 PERIOD TIME  8.3337E+01     TOTAL SIMULATION TIME  8.3337E+01


                 HYDROLOGIC BUDGET SUMMARIES FOR SIMULATED LAKES
     (ALL FLUID FLUXES ARE VOLUMES ADDED TO THE LAKE DURING PRESENT TIME STEP)
     -------------------------------------------------------------------------
 LAKE   STAGE     PRECIP       EVAP       RUNOFF
   1   111.50  1.2567E+06  1.1159E+06  0.0000E+00

            GROUND WATER            SURFACE WATER
 LAKE    INFLOW     OUTFLOW      INFLOW     OUTFLOW
   1  1.9620E+06  0.0000E+00  0.0000E+00  0.0000E+00

         WATER    CONNECTED LAKE   UPDATED     TIME-STEP          STAGE CHANGE
 LAKE     USE         INFLUX        VOLUME    SURFACE AREA   TIME STEP  CUMULATIVE
   1   0.0000E+00   0.0000E+00   5.0652E+07    6.2500E+06   3.3653E-01  1.5043E+00
 --------------------------------------------------------------------------------



            CUMULATIVE HYDROLOGIC BUDGET SUMMARIES FOR SIMULATED LAKES
     (ALL FLUID FLUXES ARE SUMS OF VOLUMES ADDED TO THE LAKE SINCE INITIAL TIME)
     ---------------------------------------------------------------------------
 LAKE       PRECIP       EVAP       RUNOFF
   1     6.0419E+06  5.3648E+06  0.0000E+00

            GROUND WATER            SURFACE WATER
 LAKE    INFLOW     OUTFLOW      INFLOW     OUTFLOW
   1  8.7249E+06  0.0000E+00  0.0000E+00  0.0000E+00

         WATER    CONNECTED LAKE
 LAKE     USE         INFLUX
   1   0.0000E+00   0.0000E+00
 --------------------------------------------------------------------------------

 
 SOLVING FOR HEAD 
     8 ITERATIONS FOR TIME STEP   6 IN STRESS PERIOD    1

 MAXIMUM HEAD CHANGE FOR EACH ITERATION:

    HEAD CHANGE   HEAD CHANGE   HEAD CHANGE   HEAD CHANGE   HEAD CHANGE
  LAYER,ROW,COL LAYER,ROW,COL LAYER,ROW,COL LAYER,ROW,COL LAYER,ROW,COL
 ----------------------------------------------------------------------
      2.572         1.101        0.4798        0.6091E-01    0.7628E-02
  (  1,  3,  3) (  5, 11,  3) (  5,  8,  3) (  4, 11,  3) (  4, 11,  4)
     0.4804E-03   -0.1550E-03   -0.4730E-04
  (  1, 16,  9) (  5,  8,  3) (  4,  9,  3)


 HEAD/DRAWDOWN PRINTOUT FLAG = 0     TOTAL BUDGET PRINTOUT FLAG = 0
 CELL-BY-CELL FLOW TERM FLAG = 1

 OUTPUT FLAGS FOR ALL LAYERS ARE THE SAME:
   HEAD    DRAWDOWN  HEAD  DRAWDOWN
 PRINTOUT  PRINTOUT  SAVE    SAVE
 ----------------------------------
     0         0       0       0


     0  LAKE CELLS ARE DRY.

 PERIOD     1     TIME STEP     6     TIME STEP LENGTH  1.7681E+01
 PERIOD TIME  1.0102E+02     TOTAL SIMULATION TIME  1.0102E+02


                 HYDROLOGIC BUDGET SUMMARIES FOR SIMULATED LAKES
     (ALL FLUID FLUXES ARE VOLUMES ADDED TO THE LAKE DURING PRESENT TIME STEP)
     -------------------------------------------------------------------------
 LAKE   STAGE     PRECIP       EVAP       RUNOFF
   1   111.86  1.2818E+06  1.1382E+06  0.0000E+00

            GROUND WATER            SURFACE WATER
 LAKE    INFLOW     OUTFLOW      INFLOW     OUTFLOW
   1  2.1084E+06  0.0000E+00  0.0000E+00  0.0000E+00

         WATER    CONNECTED LAKE   UPDATED     TIME-STEP          STAGE CHANGE
 LAKE     USE         INFLUX        VOLUME    SURFACE AREA   TIME STEP  CUMULATIVE
   1   0.0000E+00   0.0000E+00   5.2904E+07    6.2500E+06   3.6038E-01  1.8647E+00
 --------------------------------------------------------------------------------



            CUMULATIVE HYDROLOGIC BUDGET SUMMARIES FOR SIMULATED LAKES
     (ALL FLUID FLUXES ARE SUMS OF VOLUMES ADDED TO THE LAKE SINCE INITIAL TIME)
     ---------------------------------------------------------------------------
 LAKE       PRECIP       EVAP       RUNOFF
   1     7.3237E+06  6.5030E+06  0.0000E+00

            GROUND WATER            SURFACE WATER
 LAKE    INFLOW     OUTFLOW      INFLOW     OUTFLOW
   1  1.0833E+07  0.0000E+00  0.0000E+00  0.0000E+00

         WATER    CONNECTED LAKE
 LAKE     USE         INFLUX
   1   0.0000E+00   0.0000E+00
 --------------------------------------------------------------------------------

 
 SOLVING FOR HEAD 
     8 ITERATIONS FOR TIME STEP   7 IN STRESS PERIOD    1

 MAXIMUM HEAD CHANGE FOR EACH ITERATION:

    HEAD CHANGE   HEAD CHANGE   HEAD CHANGE   HEAD CHANGE   HEAD CHANGE
  LAYER,ROW,COL LAYER,ROW,COL LAYER,ROW,COL LAYER,ROW,COL LAYER,ROW,COL
 ----------------------------------------------------------------------
      2.251         1.062        0.4504        0.5823E-01    0.7518E-02
  (  1,  3,  3) (  5, 11,  3) (  5,  8,  3) (  4, 11,  3) (  4, 11,  4)
    -0.5320E-03   -0.1750E-03   -0.5533E-04
  (  3,  7,  3) (  5,  8,  3) (  4,  9,  3)


 HEAD/DRAWDOWN PRINTOUT FLAG = 0     TOTAL BUDGET PRINTOUT FLAG = 0
 CELL-BY-CELL FLOW TERM FLAG = 1

 OUTPUT FLAGS FOR ALL LAYERS ARE THE SAME:
   HEAD    DRAWDOWN  HEAD  DRAWDOWN
 PRINTOUT  PRINTOUT  SAVE    SAVE
 ----------------------------------
     0         0       0       0


     0  LAKE CELLS ARE DRY.

 PERIOD     1     TIME STEP     7     TIME STEP LENGTH  1.8034E+01
 PERIOD TIME  1.1905E+02     TOTAL SIMULATION TIME  1.1905E+02


                 HYDROLOGIC BUDGET SUMMARIES FOR SIMULATED LAKES
     (ALL FLUID FLUXES ARE VOLUMES ADDED TO THE LAKE DURING PRESENT TIME STEP)
     -------------------------------------------------------------------------
 LAKE   STAGE     PRECIP       EVAP       RUNOFF
   1   112.25  1.3075E+06  1.1609E+06  0.0000E+00

            GROUND WATER            SURFACE WATER
 LAKE    INFLOW     OUTFLOW      INFLOW     OUTFLOW
   1  2.2722E+06  0.0000E+00  0.0000E+00  0.0000E+00

         WATER    CONNECTED LAKE   UPDATED     TIME-STEP          STAGE CHANGE
 LAKE     USE         INFLUX        VOLUME    SURFACE AREA   TIME STEP  CUMULATIVE
   1   0.0000E+00   0.0000E+00   5.5322E+07    6.2500E+06   3.8691E-01  2.2516E+00
 --------------------------------------------------------------------------------



            CUMULATIVE HYDROLOGIC BUDGET SUMMARIES FOR SIMULATED LAKES
     (ALL FLUID FLUXES ARE SUMS OF VOLUMES ADDED TO THE LAKE SINCE INITIAL TIME)
     ---------------------------------------------------------------------------
 LAKE       PRECIP       EVAP       RUNOFF
   1     8.6312E+06  7.6639E+06  0.0000E+00

            GROUND WATER            SURFACE WATER
 LAKE    INFLOW     OUTFLOW      INFLOW     OUTFLOW
   1  1.3106E+07  0.0000E+00  0.0000E+00  0.0000E+00

         WATER    CONNECTED LAKE
 LAKE     USE         INFLUX
   1   0.0000E+00   0.0000E+00
 --------------------------------------------------------------------------------

 
 SOLVING FOR HEAD 
     8 ITERATIONS FOR TIME STEP   8 IN STRESS PERIOD    1

 MAXIMUM HEAD CHANGE FOR EACH ITERATION:

    HEAD CHANGE   HEAD CHANGE   HEAD CHANGE   HEAD CHANGE   HEAD CHANGE
  LAYER,ROW,COL LAYER,ROW,COL LAYER,ROW,COL LAYER,ROW,COL LAYER,ROW,COL
 ----------------------------------------------------------------------
      1.931         1.008        0.4191        0.5496E-01    0.7265E-02
  (  1, 14,  3) (  5, 11,  3) (  5,  8,  3) (  4, 11,  3) (  3, 11,  4)
    -0.5989E-03   -0.1914E-03   -0.6240E-04
  (  3,  7,  3) (  5,  8,  3) (  4,  9,  3)


 HEAD/DRAWDOWN PRINTOUT FLAG = 0     TOTAL BUDGET PRINTOUT FLAG = 0
 CELL-BY-CELL FLOW TERM FLAG = 1

 OUTPUT FLAGS FOR ALL LAYERS ARE THE SAME:
   HEAD    DRAWDOWN  HEAD  DRAWDOWN
 PRINTOUT  PRINTOUT  SAVE    SAVE
 ----------------------------------
     0         0       0       0


     0  LAKE CELLS ARE DRY.

 PERIOD     1     TIME STEP     8     TIME STEP LENGTH  1.8395E+01
 PERIOD TIME  1.3745E+02     TOTAL SIMULATION TIME  1.3745E+02


                 HYDROLOGIC BUDGET SUMMARIES FOR SIMULATED LAKES
     (ALL FLUID FLUXES ARE VOLUMES ADDED TO THE LAKE DURING PRESENT TIME STEP)
     -------------------------------------------------------------------------
 LAKE   STAGE     PRECIP       EVAP       RUNOFF
   1   112.67  1.3336E+06  1.1842E+06  0.0000E+00

            GROUND WATER            SURFACE WATER
 LAKE    INFLOW     OUTFLOW      INFLOW     OUTFLOW
   1  2.4540E+06  0.0000E+00  0.0000E+00  0.0000E+00

         WATER    CONNECTED LAKE   UPDATED     TIME-STEP          STAGE CHANGE
 LAKE     USE         INFLUX        VOLUME    SURFACE AREA   TIME STEP  CUMULATIVE
   1   0.0000E+00   0.0000E+00   5.7926E+07    6.2500E+06   4.1652E-01  2.6681E+00
 --------------------------------------------------------------------------------



            CUMULATIVE HYDROLOGIC BUDGET SUMMARIES FOR SIMULATED LAKES
[...]
     (ALL FLUID FLUXES ARE SUMS OF VOLUMES ADDED TO THE LAKE SINCE INITIAL TIME)
     ---------------------------------------------------------------------------
 LAKE       PRECIP       EVAP       RUNOFF
   1     3.1539E+08  2.8004E+08  0.0000E+00

            GROUND WATER            SURFACE WATER
 LAKE    INFLOW     OUTFLOW      INFLOW     OUTFLOW
   1  2.6738E+08  6.3414E+07  0.0000E+00  0.0000E+00

         WATER    CONNECTED LAKE
 LAKE     USE         INFLUX
   1   0.0000E+00   0.0000E+00
 --------------------------------------------------------------------------------

 
 SOLVING FOR HEAD 
     4 ITERATIONS FOR TIME STEP  95 IN STRESS PERIOD    1

 MAXIMUM HEAD CHANGE FOR EACH ITERATION:

    HEAD CHANGE   HEAD CHANGE   HEAD CHANGE   HEAD CHANGE   HEAD CHANGE
  LAYER,ROW,COL LAYER,ROW,COL LAYER,ROW,COL LAYER,ROW,COL LAYER,ROW,COL
 ----------------------------------------------------------------------
     0.7721E-03    0.2895E-03    0.1717E-03    0.9720E-04
  (  3,  9,  9) (  3, 10, 12) (  5, 12,  9) (  3, 10, 13)


 HEAD/DRAWDOWN PRINTOUT FLAG = 0     TOTAL BUDGET PRINTOUT FLAG = 0
 CELL-BY-CELL FLOW TERM FLAG = 1

 OUTPUT FLAGS FOR ALL LAYERS ARE THE SAME:
   HEAD    DRAWDOWN  HEAD  DRAWDOWN
 PRINTOUT  PRINTOUT  SAVE    SAVE
 ----------------------------------
     0         0       0       0


     0  LAKE CELLS ARE DRY.

 PERIOD     1     TIME STEP    95     TIME STEP LENGTH  1.0302E+02
 PERIOD TIME  4.4532E+03     TOTAL SIMULATION TIME  4.4532E+03


                 HYDROLOGIC BUDGET SUMMARIES FOR SIMULATED LAKES
     (ALL FLUID FLUXES ARE VOLUMES ADDED TO THE LAKE DURING PRESENT TIME STEP)
     -------------------------------------------------------------------------
 LAKE   STAGE     PRECIP       EVAP       RUNOFF
   1   148.28  7.4688E+06  6.6317E+06  0.0000E+00

            GROUND WATER            SURFACE WATER
 LAKE    INFLOW     OUTFLOW      INFLOW     OUTFLOW
   1  1.7402E+06  2.5700E+06  0.0000E+00  0.0000E+00

         WATER    CONNECTED LAKE   UPDATED     TIME-STEP          STAGE CHANGE
 LAKE     USE         INFLUX        VOLUME    SURFACE AREA   TIME STEP  CUMULATIVE
   1   0.0000E+00   0.0000E+00   2.8053E+08    6.2500E+06   1.3852E-03  3.8284E+01
 --------------------------------------------------------------------------------



            CUMULATIVE HYDROLOGIC BUDGET SUMMARIES FOR SIMULATED LAKES
     (ALL FLUID FLUXES ARE SUMS OF VOLUMES ADDED TO THE LAKE SINCE INITIAL TIME)
     ---------------------------------------------------------------------------
 LAKE       PRECIP       EVAP       RUNOFF
   1     3.2286E+08  2.8667E+08  0.0000E+00

            GROUND WATER            SURFACE WATER
 LAKE    INFLOW     OUTFLOW      INFLOW     OUTFLOW
   1  2.6912E+08  6.5984E+07  0.0000E+00  0.0000E+00

         WATER    CONNECTED LAKE
 LAKE     USE         INFLUX
   1   0.0000E+00   0.0000E+00
 --------------------------------------------------------------------------------

 
 SOLVING FOR HEAD 
     5 ITERATIONS FOR TIME STEP  96 IN STRESS PERIOD    1

 MAXIMUM HEAD CHANGE FOR EACH ITERATION:

    HEAD CHANGE   HEAD CHANGE   HEAD CHANGE   HEAD CHANGE   HEAD CHANGE
  LAYER,ROW,COL LAYER,ROW,COL LAYER,ROW,COL LAYER,ROW,COL LAYER,ROW,COL
 ----------------------------------------------------------------------
     0.1275E-02    0.3354E-03    0.1961E-03    0.1005E-03    0.2039E-04
  (  3,  9,  9) (  5,  6,  8) (  5, 12,  9) (  3, 10, 13) (  5, 12,  7)


 HEAD/DRAWDOWN PRINTOUT FLAG = 0     TOTAL BUDGET PRINTOUT FLAG = 0
 CELL-BY-CELL FLOW TERM FLAG = 1

 OUTPUT FLAGS FOR ALL LAYERS ARE THE SAME:
   HEAD    DRAWDOWN  HEAD  DRAWDOWN
 PRINTOUT  PRINTOUT  SAVE    SAVE
 ----------------------------------
     0         0       0       0


     0  LAKE CELLS ARE DRY.

 PERIOD     1     TIME STEP    96     TIME STEP LENGTH  1.0508E+02
 PERIOD TIME  4.5583E+03     TOTAL SIMULATION TIME  4.5583E+03


                 HYDROLOGIC BUDGET SUMMARIES FOR SIMULATED LAKES
     (ALL FLUID FLUXES ARE VOLUMES ADDED TO THE LAKE DURING PRESENT TIME STEP)
     -------------------------------------------------------------------------
 LAKE   STAGE     PRECIP       EVAP       RUNOFF
   1   148.29  7.6181E+06  6.7644E+06  0.0000E+00

            GROUND WATER            SURFACE WATER
 LAKE    INFLOW     OUTFLOW      INFLOW     OUTFLOW
   1  1.7743E+06  2.6222E+06  0.0000E+00  0.0000E+00

         WATER    CONNECTED LAKE   UPDATED     TIME-STEP          STAGE CHANGE
 LAKE     USE         INFLUX        VOLUME    SURFACE AREA   TIME STEP  CUMULATIVE
   1   0.0000E+00   0.0000E+00   2.8053E+08    6.2500E+06   9.7485E-04  3.8285E+01
 --------------------------------------------------------------------------------



            CUMULATIVE HYDROLOGIC BUDGET SUMMARIES FOR SIMULATED LAKES
     (ALL FLUID FLUXES ARE SUMS OF VOLUMES ADDED TO THE LAKE SINCE INITIAL TIME)
     ---------------------------------------------------------------------------
 LAKE       PRECIP       EVAP       RUNOFF
   1     3.3047E+08  2.9344E+08  0.0000E+00

            GROUND WATER            SURFACE WATER
 LAKE    INFLOW     OUTFLOW      INFLOW     OUTFLOW
   1  2.7089E+08  6.8606E+07  0.0000E+00  0.0000E+00

         WATER    CONNECTED LAKE
 LAKE     USE         INFLUX
   1   0.0000E+00   0.0000E+00
 --------------------------------------------------------------------------------

 
 SOLVING FOR HEAD 
     4 ITERATIONS FOR TIME STEP  97 IN STRESS PERIOD    1

 MAXIMUM HEAD CHANGE FOR EACH ITERATION:

    HEAD CHANGE   HEAD CHANGE   HEAD CHANGE   HEAD CHANGE   HEAD CHANGE
  LAYER,ROW,COL LAYER,ROW,COL LAYER,ROW,COL LAYER,ROW,COL LAYER,ROW,COL
 ----------------------------------------------------------------------
     0.8928E-03    0.2686E-03    0.1566E-03    0.8356E-04
  (  3,  9,  9) (  5,  6,  8) (  5,  8,  6) (  3, 10, 13)


 HEAD/DRAWDOWN PRINTOUT FLAG = 0     TOTAL BUDGET PRINTOUT FLAG = 0
 CELL-BY-CELL FLOW TERM FLAG = 1

 OUTPUT FLAGS FOR ALL LAYERS ARE THE SAME:
   HEAD    DRAWDOWN  HEAD  DRAWDOWN
 PRINTOUT  PRINTOUT  SAVE    SAVE
 ----------------------------------
     0         0       0       0


     0  LAKE CELLS ARE DRY.

 PERIOD     1     TIME STEP    97     TIME STEP LENGTH  1.0718E+02
 PERIOD TIME  4.6655E+03     TOTAL SIMULATION TIME  4.6655E+03


                 HYDROLOGIC BUDGET SUMMARIES FOR SIMULATED LAKES
     (ALL FLUID FLUXES ARE VOLUMES ADDED TO THE LAKE DURING PRESENT TIME STEP)
     -------------------------------------------------------------------------
 LAKE   STAGE     PRECIP       EVAP       RUNOFF
   1   148.29  7.7705E+06  6.8997E+06  0.0000E+00

            GROUND WATER            SURFACE WATER
 LAKE    INFLOW     OUTFLOW      INFLOW     OUTFLOW
   1  1.8091E+06  2.6754E+06  0.0000E+00  0.0000E+00

         WATER    CONNECTED LAKE   UPDATED     TIME-STEP          STAGE CHANGE
 LAKE     USE         INFLUX        VOLUME    SURFACE AREA   TIME STEP  CUMULATIVE
   1   0.0000E+00   0.0000E+00   2.8054E+08    6.2500E+06   7.2673E-04  3.8286E+01
 --------------------------------------------------------------------------------



            CUMULATIVE HYDROLOGIC BUDGET SUMMARIES FOR SIMULATED LAKES
     (ALL FLUID FLUXES ARE SUMS OF VOLUMES ADDED TO THE LAKE SINCE INITIAL TIME)
     ---------------------------------------------------------------------------
 LAKE       PRECIP       EVAP       RUNOFF
   1     3.3825E+08  3.0034E+08  0.0000E+00

            GROUND WATER            SURFACE WATER
 LAKE    INFLOW     OUTFLOW      INFLOW     OUTFLOW
   1  2.7270E+08  7.1282E+07  0.0000E+00  0.0000E+00

         WATER    CONNECTED LAKE
 LAKE     USE         INFLUX
   1   0.0000E+00   0.0000E+00
 --------------------------------------------------------------------------------

 
 SOLVING FOR HEAD 
     4 ITERATIONS FOR TIME STEP  98 IN STRESS PERIOD    1

 MAXIMUM HEAD CHANGE FOR EACH ITERATION:

    HEAD CHANGE   HEAD CHANGE   HEAD CHANGE   HEAD CHANGE   HEAD CHANGE
  LAYER,ROW,COL LAYER,ROW,COL LAYER,ROW,COL LAYER,ROW,COL LAYER,ROW,COL
 ----------------------------------------------------------------------
     0.6698E-03    0.2023E-03    0.1226E-03    0.6665E-04
  (  3,  9,  9) (  5,  6,  8) (  5, 12,  9) (  3, 10, 13)


 HEAD/DRAWDOWN PRINTOUT FLAG = 0     TOTAL BUDGET PRINTOUT FLAG = 0
 CELL-BY-CELL FLOW TERM FLAG = 1

 OUTPUT FLAGS FOR ALL LAYERS ARE THE SAME:
   HEAD    DRAWDOWN  HEAD  DRAWDOWN
 PRINTOUT  PRINTOUT  SAVE    SAVE
 ----------------------------------
     0         0       0       0


     0  LAKE CELLS ARE DRY.

 PERIOD     1     TIME STEP    98     TIME STEP LENGTH  1.0932E+02
 PERIOD TIME  4.7748E+03     TOTAL SIMULATION TIME  4.7748E+03


                 HYDROLOGIC BUDGET SUMMARIES FOR SIMULATED LAKES
     (ALL FLUID FLUXES ARE VOLUMES ADDED TO THE LAKE DURING PRESENT TIME STEP)
     -------------------------------------------------------------------------
 LAKE   STAGE     PRECIP       EVAP       RUNOFF
   1   148.29  7.9259E+06  7.0377E+06  0.0000E+00

            GROUND WATER            SURFACE WATER
 LAKE    INFLOW     OUTFLOW      INFLOW     OUTFLOW
   1  1.8449E+06  2.7295E+06  0.0000E+00  0.0000E+00

         WATER    CONNECTED LAKE   UPDATED     TIME-STEP          STAGE CHANGE
 LAKE     USE         INFLUX        VOLUME    SURFACE AREA   TIME STEP  CUMULATIVE
   1   0.0000E+00   0.0000E+00   2.8054E+08    6.2500E+06   6.9886E-04  3.8287E+01
 --------------------------------------------------------------------------------



            CUMULATIVE HYDROLOGIC BUDGET SUMMARIES FOR SIMULATED LAKES
     (ALL FLUID FLUXES ARE SUMS OF VOLUMES ADDED TO THE LAKE SINCE INITIAL TIME)
     ---------------------------------------------------------------------------
 LAKE       PRECIP       EVAP       RUNOFF
   1     3.4617E+08  3.0738E+08  0.0000E+00

            GROUND WATER            SURFACE WATER
 LAKE    INFLOW     OUTFLOW      INFLOW     OUTFLOW
   1  2.7455E+08  7.4011E+07  0.0000E+00  0.0000E+00

         WATER    CONNECTED LAKE
 LAKE     USE         INFLUX
   1   0.0000E+00   0.0000E+00
 --------------------------------------------------------------------------------

 
 SOLVING FOR HEAD 
     4 ITERATIONS FOR TIME STEP  99 IN STRESS PERIOD    1

 MAXIMUM HEAD CHANGE FOR EACH ITERATION:

    HEAD CHANGE   HEAD CHANGE   HEAD CHANGE   HEAD CHANGE   HEAD CHANGE
  LAYER,ROW,COL LAYER,ROW,COL LAYER,ROW,COL LAYER,ROW,COL LAYER,ROW,COL
 ----------------------------------------------------------------------
     0.6419E-03    0.1800E-03    0.1096E-03    0.5797E-04
  (  3,  9,  9) (  5,  6,  8) (  5, 12,  9) (  3, 10, 13)


 HEAD/DRAWDOWN PRINTOUT FLAG = 0     TOTAL BUDGET PRINTOUT FLAG = 0
 CELL-BY-CELL FLOW TERM FLAG = 1

 OUTPUT FLAGS FOR ALL LAYERS ARE THE SAME:
   HEAD    DRAWDOWN  HEAD  DRAWDOWN
 PRINTOUT  PRINTOUT  SAVE    SAVE
 ----------------------------------
     0         0       0       0


     0  LAKE CELLS ARE DRY.

 PERIOD     1     TIME STEP    99     TIME STEP LENGTH  1.1151E+02
 PERIOD TIME  4.8863E+03     TOTAL SIMULATION TIME  4.8863E+03


                 HYDROLOGIC BUDGET SUMMARIES FOR SIMULATED LAKES
     (ALL FLUID FLUXES ARE VOLUMES ADDED TO THE LAKE DURING PRESENT TIME STEP)
     -------------------------------------------------------------------------
 LAKE   STAGE     PRECIP       EVAP       RUNOFF
   1   148.29  8.0844E+06  7.1784E+06  0.0000E+00

            GROUND WATER            SURFACE WATER
 LAKE    INFLOW     OUTFLOW      INFLOW     OUTFLOW
   1  1.8812E+06  2.7847E+06  0.0000E+00  0.0000E+00

         WATER    CONNECTED LAKE   UPDATED     TIME-STEP          STAGE CHANGE
 LAKE     USE         INFLUX        VOLUME    SURFACE AREA   TIME STEP  CUMULATIVE
   1   0.0000E+00   0.0000E+00   2.8054E+08    6.2500E+06   8.9407E-05  3.8287E+01
 --------------------------------------------------------------------------------



            CUMULATIVE HYDROLOGIC BUDGET SUMMARIES FOR SIMULATED LAKES
     (ALL FLUID FLUXES ARE SUMS OF VOLUMES ADDED TO THE LAKE SINCE INITIAL TIME)
     ---------------------------------------------------------------------------
 LAKE       PRECIP       EVAP       RUNOFF
   1     3.5426E+08  3.1455E+08  0.0000E+00

            GROUND WATER            SURFACE WATER
 LAKE    INFLOW     OUTFLOW      INFLOW     OUTFLOW
   1  2.7643E+08  7.6796E+07  0.0000E+00  0.0000E+00

         WATER    CONNECTED LAKE
 LAKE     USE         INFLUX
   1   0.0000E+00   0.0000E+00
 --------------------------------------------------------------------------------

 
 SOLVING FOR HEAD 
     1 ITERATIONS FOR TIME STEP 100 IN STRESS PERIOD    1

 MAXIMUM HEAD CHANGE FOR EACH ITERATION:

    HEAD CHANGE   HEAD CHANGE   HEAD CHANGE   HEAD CHANGE   HEAD CHANGE
  LAYER,ROW,COL LAYER,ROW,COL LAYER,ROW,COL LAYER,ROW,COL LAYER,ROW,COL
 ----------------------------------------------------------------------
     0.7457E-04
  (  2, 11, 11)


 HEAD/DRAWDOWN PRINTOUT FLAG = 1     TOTAL BUDGET PRINTOUT FLAG = 1
 CELL-BY-CELL FLOW TERM FLAG = 1

 OUTPUT FLAGS FOR EACH LAYER:
          HEAD    DRAWDOWN  HEAD  DRAWDOWN
 LAYER  PRINTOUT  PRINTOUT  SAVE    SAVE
 -----------------------------------------
    1       0         0       0       0
    2       0         0       0       0
    3       0         0       0       0
    4       0         0       0       0
    5       1         0       0       0


     0  LAKE CELLS ARE DRY.

 PERIOD     1     TIME STEP   100     TIME STEP LENGTH  1.1374E+02
 PERIOD TIME  5.0000E+03     TOTAL SIMULATION TIME  5.0000E+03


                 HYDROLOGIC BUDGET SUMMARIES FOR SIMULATED LAKES
     (ALL FLUID FLUXES ARE VOLUMES ADDED TO THE LAKE DURING PRESENT TIME STEP)
     -------------------------------------------------------------------------
 LAKE   STAGE     PRECIP       EVAP       RUNOFF
   1   148.29  8.2461E+06  7.3220E+06  0.0000E+00

            GROUND WATER            SURFACE WATER
 LAKE    INFLOW     OUTFLOW      INFLOW     OUTFLOW
   1  1.9183E+06  2.8412E+06  0.0000E+00  0.0000E+00

         WATER    CONNECTED LAKE   UPDATED     TIME-STEP          STAGE CHANGE
 LAKE     USE         INFLUX        VOLUME    SURFACE AREA   TIME STEP  CUMULATIVE
   1   0.0000E+00   0.0000E+00   2.8054E+08    6.2500E+06  -2.3661E-04  3.8287E+01
 --------------------------------------------------------------------------------



            CUMULATIVE HYDROLOGIC BUDGET SUMMARIES FOR SIMULATED LAKES
     (ALL FLUID FLUXES ARE SUMS OF VOLUMES ADDED TO THE LAKE SINCE INITIAL TIME)
     ---------------------------------------------------------------------------
 LAKE       PRECIP       EVAP       RUNOFF
   1     3.6250E+08  3.2188E+08  0.0000E+00

            GROUND WATER            SURFACE WATER
 LAKE    INFLOW     OUTFLOW      INFLOW     OUTFLOW
   1  2.7835E+08  7.9637E+07  0.0000E+00  0.0000E+00

         WATER    CONNECTED LAKE
 LAKE     USE         INFLUX
   1   0.0000E+00   0.0000E+00
 --------------------------------------------------------------------------------

1
              HEAD IN LAYER   5 AT END OF TIME STEP 100 IN STRESS PERIOD    1
  ---------------------------------------------------------------------------

          1      2      3      4      5      6      7      8      9     10
 .........................................................................
   1   160.0  158.9  157.3  155.8  154.2  152.7  151.5  150.8  150.0  149.2
   2   160.0  158.6  156.7  155.1  153.4  151.9  150.7  149.9  149.1  148.4
   3   160.0  158.4  156.3  154.5  152.8  151.1  150.0  149.2  148.4  147.6
   4   160.0  158.3  156.1  154.2  152.4  150.8  149.6  148.8  148.1  147.3
   5   160.0  158.2  155.9  154.0  152.2  150.5  149.4  148.6  147.9  147.2
   6   160.0  158.2  155.9  153.9  152.1  150.3  149.1  148.5  148.0  147.5
   7   160.0  158.2  155.9  153.8  152.0  150.1  148.4  148.3  148.3  148.3
   8   160.0  158.2  155.8  153.8  151.9  150.0  148.3  148.3  148.3  148.3
   9   160.0  158.2  155.8  153.8  151.9  150.0  148.3  148.3  148.3  148.3
  10   160.0  158.2  155.8  153.8  151.9  150.0  148.3  148.3  148.3  148.3
  11   160.0  158.2  155.9  153.8  152.0  150.1  148.4  148.3  148.3  148.3
  12   160.0  158.2  155.9  153.9  152.1  150.3  149.1  148.5  148.0  147.5
  13   160.0  158.2  155.9  154.0  152.2  150.5  149.4  148.6  147.9  147.2
  14   160.0  158.3  156.1  154.2  152.4  150.8  149.6  148.8  148.1  147.3
  15   160.0  158.4  156.3  154.5  152.8  151.1  150.0  149.2  148.4  147.6
  16   160.0  158.6  156.7  155.1  153.4  151.9  150.7  149.9  149.1  148.4
  17   160.0  158.9  157.3  155.8  154.2  152.7  151.5  150.8  150.0  149.2
1
              HEAD IN LAYER   5 AT END OF TIME STEP 100 IN STRESS PERIOD    1
  ---------------------------------------------------------------------------

         11     12     13     14     15     16     17
 ....................................................
   1   148.5  147.3  145.8  144.2  142.7  141.1  140.0
   2   147.6  146.4  144.9  143.4  141.9  140.6  140.0
   3   146.9  145.7  144.2  142.7  141.4  140.3  140.0
   4   146.5  145.4  143.8  142.4  141.1  140.2  140.0
   5   146.5  145.3  143.7  142.3  141.0  140.1  140.0
   6   146.9  145.5  143.8  142.2  141.0  140.1  140.0
   7   148.2  145.9  143.9  142.3  141.0  140.1  140.0
   8   148.2  146.0  143.9  142.3  141.0  140.1  140.0
   9   148.2  146.0  143.9  142.3  141.0  140.1  140.0
  10   148.2  146.0  143.9  142.3  141.0  140.1  140.0
  11   148.2  145.9  143.9  142.3  141.0  140.1  140.0
  12   146.9  145.5  143.8  142.2  141.0  140.1  140.0
  13   146.5  145.3  143.7  142.3  141.0  140.1  140.0
  14   146.5  145.4  143.8  142.4  141.1  140.2  140.0
  15   146.9  145.7  144.2  142.7  141.4  140.3  140.0
  16   147.6  146.4  144.9  143.4  141.9  140.6  140.0
  17   148.5  147.3  145.8  144.2  142.7  141.1  140.0
1
  VOLUMETRIC BUDGET FOR ENTIRE MODEL AT END OF TIME STEP100 IN STRESS PERIOD   1
  ------------------------------------------------------------------------------

     CUMULATIVE VOLUMES      L**3       RATES FOR THIS TIME STEP      L**3/T
     ------------------                 ------------------------

           IN:                                      IN:
           ---                                      ---
             STORAGE =       33100.9180               STORAGE =       2.7001E-12
       CONSTANT HEAD =  1290829950.0000         CONSTANT HEAD =      166881.9690
                  ET =           0.0000                    ET =           0.0000
            RECHARGE =  8700039170.0000              RECHARGE =     1740000.0000
     SPECIFIED FLOWS =           0.0000       SPECIFIED FLOWS =           0.0000
       LAKE  SEEPAGE =    79637104.0000         LAKE  SEEPAGE =       24980.2754

            TOTAL IN = 10070539300.0000              TOTAL IN =     1931862.2500

          OUT:                                     OUT:
          ----                                     ----
             STORAGE =  1011713090.0000               STORAGE =           3.2566
       CONSTANT HEAD =    38468252.0000         CONSTANT HEAD =        9490.6807
                  ET =  8742016000.0000                    ET =     1905475.6200
            RECHARGE =           0.0000              RECHARGE =           0.0000
     SPECIFIED FLOWS =           0.0000       SPECIFIED FLOWS =           0.0000
       LAKE  SEEPAGE =   278347904.0000         LAKE  SEEPAGE =       16865.5605

           TOTAL OUT = 10070545400.0000             TOTAL OUT =     1931835.1300

            IN - OUT =       -5919.0820              IN - OUT =          27.1213

 PERCENT DISCREPANCY =           0.00     PERCENT DISCREPANCY =           0.00






          TIME SUMMARY AT END OF TIME STEP 100 IN STRESS PERIOD    1
                    SECONDS     MINUTES      HOURS       DAYS        YEARS
                    -----------------------------------------------------------
   TIME STEP LENGTH 9.82708E+06 1.63785E+05  2729.7      113.74     0.31140    
 STRESS PERIOD TIME 4.32002E+08 7.20003E+06 1.20001E+05  5000.0      13.689    
         TOTAL TIME 4.32002E+08 7.20003E+06 1.20001E+05  5000.0      13.689    
1
