                                  MODFLOW-2000
      U.S. GEOLOGICAL SURVEY MODULAR FINITE-DIFFERENCE GROUND-WATER FLOW MODEL
                           VERSION 1.18.00 08/23/2007


 This model run combines GLOBAL and LIST output into this single file.

 GLOBAL LISTING FILE: l1b2k.lst
                         UNIT    1

 OPENING ../data/l1b2k.ba6
 FILE TYPE:BAS6   UNIT    7   STATUS:OLD    
 FORMAT:FORMATTED              ACCESS:SEQUENTIAL          

 OPENING ../data/l1b2k.bc6
 FILE TYPE:BCF6   UNIT   10   STATUS:OLD    
 FORMAT:FORMATTED              ACCESS:SEQUENTIAL          

 OPENING ../data/l1b2k.evt
 FILE TYPE:EVT   UNIT   11   STATUS:OLD    
 FORMAT:FORMATTED              ACCESS:SEQUENTIAL          

 OPENING ../data/l1b2k.rch
 FILE TYPE:RCH   UNIT   12   STATUS:OLD    
 FORMAT:FORMATTED              ACCESS:SEQUENTIAL          

 OPENING ../data/l1b2k.sip
 FILE TYPE:SIP   UNIT   13   STATUS:OLD    
 FORMAT:FORMATTED              ACCESS:SEQUENTIAL          

 OPENING ../data/l1b2k.oc
 FILE TYPE:OC   UNIT   17   STATUS:OLD    
 FORMAT:FORMATTED              ACCESS:SEQUENTIAL          

 OPENING ../data/l1b2k.lak
 FILE TYPE:LAK   UNIT   16   STATUS:OLD    
 FORMAT:FORMATTED              ACCESS:SEQUENTIAL          

 OPENING ../data/l1b2k.dis
 FILE TYPE:DIS   UNIT   14   STATUS:OLD    
 FORMAT:FORMATTED              ACCESS:SEQUENTIAL          

 OPENING ../data/l1b2k.fhb
 FILE TYPE:FHB   UNIT   21   STATUS:OLD    
 FORMAT:FORMATTED              ACCESS:SEQUENTIAL          


 DISCRETIZATION INPUT DATA READ FROM UNIT   14
    5 LAYERS        17 ROWS        17 COLUMNS
    1 STRESS PERIOD(S) IN SIMULATION
 MODEL TIME UNIT IS DAYS
 MODEL LENGTH UNIT IS UNDEFINED
 THE GROUND-WATER TRANSPORT PROCESS IS INACTIVE

 THE OBSERVATION PROCESS IS INACTIVE
 THE SENSITIVITY PROCESS IS INACTIVE
 THE PARAMETER-ESTIMATION PROCESS IS INACTIVE

 MODE: FORWARD

  Confining bed flag for each layer:
   0   0   0   0   0

      13039  ELEMENTS OF GX ARRAY USED OUT OF      13039
       1445  ELEMENTS OF GZ ARRAY USED OUT OF       1445
       1445  ELEMENTS OF IG ARRAY USED OUT OF       1445



                               DELR
 READING ON UNIT   14 WITH FORMAT: (10F13.0)           
   250.00       1000.0       1000.0       1000.0       1000.0       1000.0       500.00       500.00       500.00       500.00    
   500.00       1000.0       1000.0       1000.0       1000.0       1000.0       250.00    



                               DELC
 READING ON UNIT   14 WITH FORMAT: (10F13.0)           
   250.00       1000.0       1000.0       1000.0       1000.0       1000.0       500.00       500.00       500.00       500.00    
   500.00       1000.0       1000.0       1000.0       1000.0       1000.0       250.00    

 TOP ELEVATION OF LAYER 1 =   500.000    

   MODEL LAYER BOTTOM EL. =   107.000     FOR LAYER   1

   MODEL LAYER BOTTOM EL. =   97.0000     FOR LAYER   2

   MODEL LAYER BOTTOM EL. =   87.0000     FOR LAYER   3

   MODEL LAYER BOTTOM EL. =   77.0000     FOR LAYER   4

   MODEL LAYER BOTTOM EL. =   67.0000     FOR LAYER   5


 STRESS PERIOD     LENGTH       TIME STEPS     MULTIPLIER FOR DELT    SS FLAG
 ----------------------------------------------------------------------------
        1         1.000000          1                    1.000         SS

 STEADY-STATE SIMULATION




 SIP5 -- STRONGLY IMPLICIT PROCEDURE SOLUTION PACKAGE
                    VERSION 5, 9/1/93 INPUT READ FROM UNIT   13
 MAXIMUM OF 500 ITERATIONS ALLOWED FOR CLOSURE
  5 ITERATION PARAMETERS
       6285 ELEMENTS IN X ARRAY ARE USED BY SIP
       1500 ELEMENTS IN IX ARRAY ARE USED BY SIP

       6285  ELEMENTS OF X ARRAY USED OUT OF       6285
          0  ELEMENTS OF Z ARRAY USED OUT OF          1
       1500  ELEMENTS OF IX ARRAY USED OUT OF       1500
          0  ELEMENTS OF XHS ARRAY USED OUT OF          1



          SOLUTION BY THE STRONGLY IMPLICIT PROCEDURE
          -------------------------------------------
 MAXIMUM ITERATIONS ALLOWED FOR CLOSURE =      500
                 ACCELERATION PARAMETER =     1.0000    
      HEAD CHANGE CRITERION FOR CLOSURE =    0.10000E-03
      SIP HEAD CHANGE PRINTOUT INTERVAL =        1

     CALCULATE ITERATION PARAMETERS FROM MODEL CALCULATED WSEED
 
 #Hypothetical simulator of lake and surficial aquifer interaction. ------------ 
 #Shows convergence to equilibrium in transient mode.                            
    5 LAYERS        17 ROWS        17 COLUMNS
    1 STRESS PERIOD(S) IN SIMULATION

 BAS6 -- BASIC PACKAGE, VERSION 6, 1/11/2000 INPUT READ FROM UNIT    7
         25 ELEMENTS IN IR ARRAY ARE USED BY BAS

 BCF6 -- BLOCK-CENTERED FLOW PACKAGE, VERSION 6, 1/11/2000
         INPUT READ FROM UNIT 10
 STEADY-STATE SIMULATION
 HEAD AT CELLS THAT CONVERT TO DRY=   0.0000    
 WETTING CAPABILITY IS ACTIVE
 WETTING FACTOR=   1.00000     WETTING ITERATION INTERVAL=   1
 FLAG THAT SPECIFIES THE EQUATION TO USE FOR HEAD AT WETTED CELLS=   0
      LAYER  LAYER-TYPE CODE     INTERBLOCK T
      --------------------------------------------
         1            1          0 -- HARMONIC    
         2            3          0 -- HARMONIC    
         3            3          0 -- HARMONIC    
         4            3          0 -- HARMONIC    
         5            3          0 -- HARMONIC    
       4340 ELEMENTS IN RX ARRAY ARE USED BY BCF

 EVT6 -- EVAPOTRANSPIRATION PACKAGE, VERSION 6, 12/14/2000
         INPUT READ FROM UNIT   11
 No named parameters
 OPTION 3 -- EVAPOTRANSPIRATION FROM HIGHEST ACTIVE NODE IN EACH VERTICAL COLUMN
        867 ELEMENTS IN RX ARRAY ARE USED BY EVT
        289 ELEMENTS IN IR ARRAY ARE USED BY EVT

 RCH6 -- RECHARGE PACKAGE, VERSION 6, 1/11/2000 INPUT READ FROM UNIT   12
 No named parameters
 OPTION 3 -- RECHARGE TO HIGHEST ACTIVE NODE IN EACH VERTICAL COLUMN
        289 ELEMENTS IN RX ARRAY ARE USED BY RCH
        289 ELEMENTS IN IR ARRAY ARE USED BY RCH
0FHB1 -- SPECIFIED FLOW PACKAGE, VERSION 1,12/3/96 INPUT READ FROM 21
  SPECIFIED FLOW AND HEAD VALUES WILL REMAIN CONSTANT FOR ENTIRE SIMULATION.
 FLOW WILL BE SPECIFIED AT A TOTAL OF    0 CELLS.
 HEAD WILL BE SPECIFIED AT A TOTAL OF  320 CELLS.
 FLOW, HEAD, AND AUX VARIABLES AT TIME=0 WILL BE 
 USED IN STEADY-STATE SIMULATIONS.
  0 AUXILIARY VARIABLES FOR SPECIFIED-FLOW CELLS WILL
  BE DEFINED BY FHB FOR USE BY OTHER PACKAGES.
  0 AUXILIARY VARIABLES FOR SPECIFIED-HEAD CELLS WILL
  BE DEFINED BY FHB FOR USE BY OTHER PACKAGES.
      321 ELEMENTS IN RX ARRAY ARE USED FOR FHB1
     1280 ELEMENTS IN IR ARRAY ARE USED FOR FHB1

 LAK3 -- LAKE PACKAGE, VERSION 3, 5/20/2006 INPUT READ FROM UNIT 16
 SPACE ALLOCATION FOR    722 GRID CELL FACES ADJACENT TO LAKES
 MAXIMUM NUMBER OF LAKES IS  1 FOR THIS SIMULATION
 CELL-BY-CELL SEEPAGES WILL NOT BE PRINTED OR SAVED


 NEWTON ITERATION METHOD FOR COMPUTING LAKE STAGE DURING STEADY-STATE STRESS PERIODS HAS BEEN MODIFIED:
 SPECIFIED THETA OF  0.500 WILL BE AUTOMATICALLY CHANGED TO 1.0 FOR ALL STEADY STATE STRESS PERIODS.
 MAXIMUM NUMBER OF STEADY-STATE ITERATIONS (NSSITR) =    50
 CLOSURE CRITERIA FOR STEADY-STATE LAKE STAGE (SSCNCR) = 1.000000E-03


       3264 ELEMENTS IN RX ARRAY ARE USED BY LAK
        604 ELEMENTS IN RZ ARRAY ARE USED BY LAK
       6515 ELEMENTS IN RZ ARRAY ARE USED BY LAK

       9081  ELEMENTS OF RX ARRAY USED OUT OF       9081
        604  ELEMENTS OF RZ ARRAY USED OUT OF        604
       8395  ELEMENTS OF IR ARRAY USED OUT OF       8395
1
 #Hypothetical simulator of lake and surficial aquifer interaction. ------------ 
 #Shows convergence to equilibrium in transient mode.                            



                     BOUNDARY ARRAY FOR LAYER   1
 READING ON UNIT    7 WITH FORMAT: (20I4)              

        1   2   3   4   5   6   7   8   9  10  11  12  13  14  15  16  17
 ........................................................................
   1   -1  -1  -1  -1  -1  -1  -1  -1  -1  -1  -1  -1  -1  -1  -1  -1  -1
   2   -1   1   1   1   1   1   1   1   1   1   1   1   1   1   1   1  -1
   3   -1   1   1   1   1   1   1   1   1   1   1   1   1   1   1   1  -1
   4   -1   1   1   1   1   1   1   1   1   1   1   1   1   1   1   1  -1
   5   -1   1   1   1   1   1   1   1   1   1   1   1   1   1   1   1  -1
   6   -1   1   1   1   1   1   1   1   1   1   1   1   1   1   1   1  -1
   7   -1   1   1   1   1   1   0   0   0   0   0   1   1   1   1   1  -1
   8   -1   1   1   1   1   1   0   0   0   0   0   1   1   1   1   1  -1
   9   -1   1   1   1   1   1   0   0   0   0   0   1   1   1   1   1  -1
  10   -1   1   1   1   1   1   0   0   0   0   0   1   1   1   1   1  -1
  11   -1   1   1   1   1   1   0   0   0   0   0   1   1   1   1   1  -1
  12   -1   1   1   1   1   1   1   1   1   1   1   1   1   1   1   1  -1
  13   -1   1   1   1   1   1   1   1   1   1   1   1   1   1   1   1  -1
  14   -1   1   1   1   1   1   1   1   1   1   1   1   1   1   1   1  -1
  15   -1   1   1   1   1   1   1   1   1   1   1   1   1   1   1   1  -1
  16   -1   1   1   1   1   1   1   1   1   1   1   1   1   1   1   1  -1
  17   -1  -1  -1  -1  -1  -1  -1  -1  -1  -1  -1  -1  -1  -1  -1  -1  -1



                     BOUNDARY ARRAY FOR LAYER   2
 READING ON UNIT    7 WITH FORMAT: (20I4)              

        1   2   3   4   5   6   7   8   9  10  11  12  13  14  15  16  17
 ........................................................................
   1   -1  -1  -1  -1  -1  -1  -1  -1  -1  -1  -1  -1  -1  -1  -1  -1  -1
   2   -1   1   1   1   1   1   1   1   1   1   1   1   1   1   1   1  -1
   3   -1   1   1   1   1   1   1   1   1   1   1   1   1   1   1   1  -1
   4   -1   1   1   1   1   1   1   1   1   1   1   1   1   1   1   1  -1
   5   -1   1   1   1   1   1   1   1   1   1   1   1   1   1   1   1  -1
   6   -1   1   1   1   1   1   1   1   1   1   1   1   1   1   1   1  -1
   7   -1   1   1   1   1   1   1   1   1   1   1   1   1   1   1   1  -1
   8   -1   1   1   1   1   1   1   0   0   0   1   1   1   1   1   1  -1
   9   -1   1   1   1   1   1   1   0   0   0   1   1   1   1   1   1  -1
  10   -1   1   1   1   1   1   1   0   0   0   1   1   1   1   1   1  -1
  11   -1   1   1   1   1   1   1   1   1   1   1   1   1   1   1   1  -1
  12   -1   1   1   1   1   1   1   1   1   1   1   1   1   1   1   1  -1
  13   -1   1   1   1   1   1   1   1   1   1   1   1   1   1   1   1  -1
  14   -1   1   1   1   1   1   1   1   1   1   1   1   1   1   1   1  -1
  15   -1   1   1   1   1   1   1   1   1   1   1   1   1   1   1   1  -1
  16   -1   1   1   1   1   1   1   1   1   1   1   1   1   1   1   1  -1
  17   -1  -1  -1  -1  -1  -1  -1  -1  -1  -1  -1  -1  -1  -1  -1  -1  -1



                     BOUNDARY ARRAY FOR LAYER   3
 READING ON UNIT    7 WITH FORMAT: (20I4)              

        1   2   3   4   5   6   7   8   9  10  11  12  13  14  15  16  17
 ........................................................................
   1   -1  -1  -1  -1  -1  -1  -1  -1  -1  -1  -1  -1  -1  -1  -1  -1  -1
   2   -1   1   1   1   1   1   1   1   1   1   1   1   1   1   1   1  -1
   3   -1   1   1   1   1   1   1   1   1   1   1   1   1   1   1   1  -1
   4   -1   1   1   1   1   1   1   1   1   1   1   1   1   1   1   1  -1
   5   -1   1   1   1   1   1   1   1   1   1   1   1   1   1   1   1  -1
   6   -1   1   1   1   1   1   1   1   1   1   1   1   1   1   1   1  -1
   7   -1   1   1   1   1   1   1   1   1   1   1   1   1   1   1   1  -1
   8   -1   1   1   1   1   1   1   1   1   1   1   1   1   1   1   1  -1
   9   -1   1   1   1   1   1   1   1   1   1   1   1   1   1   1   1  -1
  10   -1   1   1   1   1   1   1   1   1   1   1   1   1   1   1   1  -1
  11   -1   1   1   1   1   1   1   1   1   1   1   1   1   1   1   1  -1
  12   -1   1   1   1   1   1   1   1   1   1   1   1   1   1   1   1  -1
  13   -1   1   1   1   1   1   1   1   1   1   1   1   1   1   1   1  -1
  14   -1   1   1   1   1   1   1   1   1   1   1   1   1   1   1   1  -1
  15   -1   1   1   1   1   1   1   1   1   1   1   1   1   1   1   1  -1
  16   -1   1   1   1   1   1   1   1   1   1   1   1   1   1   1   1  -1
  17   -1  -1  -1  -1  -1  -1  -1  -1  -1  -1  -1  -1  -1  -1  -1  -1  -1



                     BOUNDARY ARRAY FOR LAYER   4
 READING ON UNIT    7 WITH FORMAT: (20I4)              

        1   2   3   4   5   6   7   8   9  10  11  12  13  14  15  16  17
 ........................................................................
   1   -1  -1  -1  -1  -1  -1  -1  -1  -1  -1  -1  -1  -1  -1  -1  -1  -1
   2   -1   1   1   1   1   1   1   1   1   1   1   1   1   1   1   1  -1
   3   -1   1   1   1   1   1   1   1   1   1   1   1   1   1   1   1  -1
   4   -1   1   1   1   1   1   1   1   1   1   1   1   1   1   1   1  -1
   5   -1   1   1   1   1   1   1   1   1   1   1   1   1   1   1   1  -1
   6   -1   1   1   1   1   1   1   1   1   1   1   1   1   1   1   1  -1
   7   -1   1   1   1   1   1   1   1   1   1   1   1   1   1   1   1  -1
   8   -1   1   1   1   1   1   1   1   1   1   1   1   1   1   1   1  -1
   9   -1   1   1   1   1   1   1   1   1   1   1   1   1   1   1   1  -1
  10   -1   1   1   1   1   1   1   1   1   1   1   1   1   1   1   1  -1
  11   -1   1   1   1   1   1   1   1   1   1   1   1   1   1   1   1  -1
  12   -1   1   1   1   1   1   1   1   1   1   1   1   1   1   1   1  -1
  13   -1   1   1   1   1   1   1   1   1   1   1   1   1   1   1   1  -1
  14   -1   1   1   1   1   1   1   1   1   1   1   1   1   1   1   1  -1
  15   -1   1   1   1   1   1   1   1   1   1   1   1   1   1   1   1  -1
  16   -1   1   1   1   1   1   1   1   1   1   1   1   1   1   1   1  -1
  17   -1  -1  -1  -1  -1  -1  -1  -1  -1  -1  -1  -1  -1  -1  -1  -1  -1



                     BOUNDARY ARRAY FOR LAYER   5
 READING ON UNIT    7 WITH FORMAT: (20I4)              

        1   2   3   4   5   6   7   8   9  10  11  12  13  14  15  16  17
 ........................................................................
   1   -1  -1  -1  -1  -1  -1  -1  -1  -1  -1  -1  -1  -1  -1  -1  -1  -1
   2   -1   1   1   1   1   1   1   1   1   1   1   1   1   1   1   1  -1
   3   -1   1   1   1   1   1   1   1   1   1   1   1   1   1   1   1  -1
   4   -1   1   1   1   1   1   1   1   1   1   1   1   1   1   1   1  -1
   5   -1   1   1   1   1   1   1   1   1   1   1   1   1   1   1   1  -1
   6   -1   1   1   1   1   1   1   1   1   1   1   1   1   1   1   1  -1
   7   -1   1   1   1   1   1   1   1   1   1   1   1   1   1   1   1  -1
   8   -1   1   1   1   1   1   1   1   1   1   1   1   1   1   1   1  -1
   9   -1   1   1   1   1   1   1   1   1   1   1   1   1   1   1   1  -1
  10   -1   1   1   1   1   1   1   1   1   1   1   1   1   1   1   1  -1
  11   -1   1   1   1   1   1   1   1   1   1   1   1   1   1   1   1  -1
  12   -1   1   1   1   1   1   1   1   1   1   1   1   1   1   1   1  -1
  13   -1   1   1   1   1   1   1   1   1   1   1   1   1   1   1   1  -1
  14   -1   1   1   1   1   1   1   1   1   1   1   1   1   1   1   1  -1
  15   -1   1   1   1   1   1   1   1   1   1   1   1   1   1   1   1  -1
  16   -1   1   1   1   1   1   1   1   1   1   1   1   1   1   1   1  -1
  17   -1  -1  -1  -1  -1  -1  -1  -1  -1  -1  -1  -1  -1  -1  -1  -1  -1

 AQUIFER HEAD WILL BE SET TO -999.00     AT ALL NO-FLOW NODES (IBOUND=0).

             INITIAL HEAD =   115.000     FOR LAYER   1

             INITIAL HEAD =   115.000     FOR LAYER   2

             INITIAL HEAD =   115.000     FOR LAYER   3

             INITIAL HEAD =   115.000     FOR LAYER   4

             INITIAL HEAD =   115.000     FOR LAYER   5

 OUTPUT CONTROL IS SPECIFIED EVERY TIME STEP
 HEAD PRINT FORMAT CODE IS -14    DRAWDOWN PRINT FORMAT CODE IS   9
 HEADS WILL BE SAVED ON UNIT   18    DRAWDOWNS WILL BE SAVED ON UNIT   19

 COLUMN TO ROW ANISOTROPY =   1.00000    

    HYD. COND. ALONG ROWS =   30.0000     FOR LAYER   1

 VERT HYD COND /THICKNESS =   3.00000     FOR LAYER   1



                   WETDRY PARAMETER FOR LAYER   1
 READING ON UNIT   10 WITH FORMAT: (10F13.0)           

         1     2     3     4     5     6     7     8     9    10    11    12    13    14    15    16    17
 .........................................................................................................
   1    0.0   0.0   0.0   0.0   0.0   0.0   0.0   0.0   0.0   0.0   0.0   0.0   0.0   0.0   0.0   0.0   0.0
   2    0.0  -0.2  -0.2  -0.2  -0.2  -0.2  -0.2  -0.2  -0.2  -0.2  -0.2  -0.2  -0.2  -0.2  -0.2  -0.2   0.0
   3    0.0  -0.2  -0.2  -0.2  -0.2  -0.2  -0.2  -0.2  -0.2  -0.2  -0.2  -0.2  -0.2  -0.2  -0.2  -0.2   0.0
   4    0.0  -0.2  -0.2  -0.2  -0.2  -0.2  -0.2  -0.2  -0.2  -0.2  -0.2  -0.2  -0.2  -0.2  -0.2  -0.2   0.0
   5    0.0  -0.2  -0.2  -0.2  -0.2  -0.2  -0.2  -0.2  -0.2  -0.2  -0.2  -0.2  -0.2  -0.2  -0.2  -0.2   0.0
   6    0.0  -0.2  -0.2  -0.2  -0.2  -0.2  -0.2  -0.2  -0.2  -0.2  -0.2  -0.2  -0.2  -0.2  -0.2  -0.2   0.0
   7    0.0  -0.2  -0.2  -0.2  -0.2  -0.2   0.0   0.0   0.0   0.0   0.0  -0.2  -0.2  -0.2  -0.2  -0.2   0.0
   8    0.0  -0.2  -0.2  -0.2  -0.2  -0.2   0.0   0.0   0.0   0.0   0.0  -0.2  -0.2  -0.2  -0.2  -0.2   0.0
   9    0.0  -0.2  -0.2  -0.2  -0.2  -0.2   0.0   0.0   0.0   0.0   0.0  -0.2  -0.2  -0.2  -0.2  -0.2   0.0
  10    0.0  -0.2  -0.2  -0.2  -0.2  -0.2   0.0   0.0   0.0   0.0   0.0  -0.2  -0.2  -0.2  -0.2  -0.2   0.0
  11    0.0  -0.2  -0.2  -0.2  -0.2  -0.2   0.0   0.0   0.0   0.0   0.0  -0.2  -0.2  -0.2  -0.2  -0.2   0.0
  12    0.0  -0.2  -0.2  -0.2  -0.2  -0.2  -0.2  -0.2  -0.2  -0.2  -0.2  -0.2  -0.2  -0.2  -0.2  -0.2   0.0
  13    0.0  -0.2  -0.2  -0.2  -0.2  -0.2  -0.2  -0.2  -0.2  -0.2  -0.2  -0.2  -0.2  -0.2  -0.2  -0.2   0.0
  14    0.0  -0.2  -0.2  -0.2  -0.2  -0.2  -0.2  -0.2  -0.2  -0.2  -0.2  -0.2  -0.2  -0.2  -0.2  -0.2   0.0
  15    0.0  -0.2  -0.2  -0.2  -0.2  -0.2  -0.2  -0.2  -0.2  -0.2  -0.2  -0.2  -0.2  -0.2  -0.2  -0.2   0.0
  16    0.0  -0.2  -0.2  -0.2  -0.2  -0.2  -0.2  -0.2  -0.2  -0.2  -0.2  -0.2  -0.2  -0.2  -0.2  -0.2   0.0
  17    0.0   0.0   0.0   0.0   0.0   0.0   0.0   0.0   0.0   0.0   0.0   0.0   0.0   0.0   0.0   0.0   0.0

    HYD. COND. ALONG ROWS =   30.0000     FOR LAYER   2

 VERT HYD COND /THICKNESS =   3.00000     FOR LAYER   2



                   WETDRY PARAMETER FOR LAYER   2
 READING ON UNIT   10 WITH FORMAT: (10F13.0)           

         1     2     3     4     5     6     7     8     9    10    11    12    13    14    15    16    17
 .........................................................................................................
   1    0.0   0.0   0.0   0.0   0.0   0.0   0.0   0.0   0.0   0.0   0.0   0.0   0.0   0.0   0.0   0.0   0.0
   2    0.0  -0.2  -0.2  -0.2  -0.2  -0.2  -0.2  -0.2  -0.2  -0.2  -0.2  -0.2  -0.2  -0.2  -0.2  -0.2   0.0
   3    0.0  -0.2  -0.2  -0.2  -0.2  -0.2  -0.2  -0.2  -0.2  -0.2  -0.2  -0.2  -0.2  -0.2  -0.2  -0.2   0.0
   4    0.0  -0.2  -0.2  -0.2  -0.2  -0.2  -0.2  -0.2  -0.2  -0.2  -0.2  -0.2  -0.2  -0.2  -0.2  -0.2   0.0
   5    0.0  -0.2  -0.2  -0.2  -0.2  -0.2  -0.2  -0.2  -0.2  -0.2  -0.2  -0.2  -0.2  -0.2  -0.2  -0.2   0.0
   6    0.0  -0.2  -0.2  -0.2  -0.2  -0.2  -0.2  -0.2  -0.2  -0.2  -0.2  -0.2  -0.2  -0.2  -0.2  -0.2   0.0
   7    0.0  -0.2  -0.2  -0.2  -0.2  -0.2  -0.2  -0.2  -0.2  -0.2  -0.2  -0.2  -0.2  -0.2  -0.2  -0.2   0.0
   8    0.0  -0.2  -0.2  -0.2  -0.2  -0.2  -0.2   0.0   0.0   0.0  -0.2  -0.2  -0.2  -0.2  -0.2  -0.2   0.0
   9    0.0  -0.2  -0.2  -0.2  -0.2  -0.2  -0.2   0.0   0.0   0.0  -0.2  -0.2  -0.2  -0.2  -0.2  -0.2   0.0
  10    0.0  -0.2  -0.2  -0.2  -0.2  -0.2  -0.2   0.0   0.0   0.0  -0.2  -0.2  -0.2  -0.2  -0.2  -0.2   0.0
  11    0.0  -0.2  -0.2  -0.2  -0.2  -0.2  -0.2  -0.2  -0.2  -0.2  -0.2  -0.2  -0.2  -0.2  -0.2  -0.2   0.0
  12    0.0  -0.2  -0.2  -0.2  -0.2  -0.2  -0.2  -0.2  -0.2  -0.2  -0.2  -0.2  -0.2  -0.2  -0.2  -0.2   0.0
  13    0.0  -0.2  -0.2  -0.2  -0.2  -0.2  -0.2  -0.2  -0.2  -0.2  -0.2  -0.2  -0.2  -0.2  -0.2  -0.2   0.0
  14    0.0  -0.2  -0.2  -0.2  -0.2  -0.2  -0.2  -0.2  -0.2  -0.2  -0.2  -0.2  -0.2  -0.2  -0.2  -0.2   0.0
  15    0.0  -0.2  -0.2  -0.2  -0.2  -0.2  -0.2  -0.2  -0.2  -0.2  -0.2  -0.2  -0.2  -0.2  -0.2  -0.2   0.0
  16    0.0  -0.2  -0.2  -0.2  -0.2  -0.2  -0.2  -0.2  -0.2  -0.2  -0.2  -0.2  -0.2  -0.2  -0.2  -0.2   0.0
  17    0.0   0.0   0.0   0.0   0.0   0.0   0.0   0.0   0.0   0.0   0.0   0.0   0.0   0.0   0.0   0.0   0.0

    HYD. COND. ALONG ROWS =   30.0000     FOR LAYER   3

 VERT HYD COND /THICKNESS =   3.00000     FOR LAYER   3



                   WETDRY PARAMETER FOR LAYER   3
 READING ON UNIT   10 WITH FORMAT: (10F13.0)           

         1     2     3     4     5     6     7     8     9    10    11    12    13    14    15    16    17
 .........................................................................................................
   1    0.0   0.0   0.0   0.0   0.0   0.0   0.0   0.0   0.0   0.0   0.0   0.0   0.0   0.0   0.0   0.0   0.0
   2    0.0  -0.2  -0.2  -0.2  -0.2  -0.2  -0.2  -0.2  -0.2  -0.2  -0.2  -0.2  -0.2  -0.2  -0.2  -0.2   0.0
   3    0.0  -0.2  -0.2  -0.2  -0.2  -0.2  -0.2  -0.2  -0.2  -0.2  -0.2  -0.2  -0.2  -0.2  -0.2  -0.2   0.0
   4    0.0  -0.2  -0.2  -0.2  -0.2  -0.2  -0.2  -0.2  -0.2  -0.2  -0.2  -0.2  -0.2  -0.2  -0.2  -0.2   0.0
   5    0.0  -0.2  -0.2  -0.2  -0.2  -0.2  -0.2  -0.2  -0.2  -0.2  -0.2  -0.2  -0.2  -0.2  -0.2  -0.2   0.0
   6    0.0  -0.2  -0.2  -0.2  -0.2  -0.2  -0.2  -0.2  -0.2  -0.2  -0.2  -0.2  -0.2  -0.2  -0.2  -0.2   0.0
   7    0.0  -0.2  -0.2  -0.2  -0.2  -0.2  -0.2  -0.2  -0.2  -0.2  -0.2  -0.2  -0.2  -0.2  -0.2  -0.2   0.0
   8    0.0  -0.2  -0.2  -0.2  -0.2  -0.2  -0.2  -0.2  -0.2  -0.2  -0.2  -0.2  -0.2  -0.2  -0.2  -0.2   0.0
   9    0.0  -0.2  -0.2  -0.2  -0.2  -0.2  -0.2  -0.2  -0.2  -0.2  -0.2  -0.2  -0.2  -0.2  -0.2  -0.2   0.0
  10    0.0  -0.2  -0.2  -0.2  -0.2  -0.2  -0.2  -0.2  -0.2  -0.2  -0.2  -0.2  -0.2  -0.2  -0.2  -0.2   0.0
  11    0.0  -0.2  -0.2  -0.2  -0.2  -0.2  -0.2  -0.2  -0.2  -0.2  -0.2  -0.2  -0.2  -0.2  -0.2  -0.2   0.0
  12    0.0  -0.2  -0.2  -0.2  -0.2  -0.2  -0.2  -0.2  -0.2  -0.2  -0.2  -0.2  -0.2  -0.2  -0.2  -0.2   0.0
  13    0.0  -0.2  -0.2  -0.2  -0.2  -0.2  -0.2  -0.2  -0.2  -0.2  -0.2  -0.2  -0.2  -0.2  -0.2  -0.2   0.0
  14    0.0  -0.2  -0.2  -0.2  -0.2  -0.2  -0.2  -0.2  -0.2  -0.2  -0.2  -0.2  -0.2  -0.2  -0.2  -0.2   0.0
  15    0.0  -0.2  -0.2  -0.2  -0.2  -0.2  -0.2  -0.2  -0.2  -0.2  -0.2  -0.2  -0.2  -0.2  -0.2  -0.2   0.0
  16    0.0  -0.2  -0.2  -0.2  -0.2  -0.2  -0.2  -0.2  -0.2  -0.2  -0.2  -0.2  -0.2  -0.2  -0.2  -0.2   0.0
  17    0.0   0.0   0.0   0.0   0.0   0.0   0.0   0.0   0.0   0.0   0.0   0.0   0.0   0.0   0.0   0.0   0.0

    HYD. COND. ALONG ROWS =   30.0000     FOR LAYER   4

 VERT HYD COND /THICKNESS =   3.00000     FOR LAYER   4



                   WETDRY PARAMETER FOR LAYER   4
 READING ON UNIT   10 WITH FORMAT: (10F13.0)           

         1     2     3     4     5     6     7     8     9    10    11    12    13    14    15    16    17
 .........................................................................................................
   1    0.0   0.0   0.0   0.0   0.0   0.0   0.0   0.0   0.0   0.0   0.0   0.0   0.0   0.0   0.0   0.0   0.0
   2    0.0  -0.2  -0.2  -0.2  -0.2  -0.2  -0.2  -0.2  -0.2  -0.2  -0.2  -0.2  -0.2  -0.2  -0.2  -0.2   0.0
   3    0.0  -0.2  -0.2  -0.2  -0.2  -0.2  -0.2  -0.2  -0.2  -0.2  -0.2  -0.2  -0.2  -0.2  -0.2  -0.2   0.0
   4    0.0  -0.2  -0.2  -0.2  -0.2  -0.2  -0.2  -0.2  -0.2  -0.2  -0.2  -0.2  -0.2  -0.2  -0.2  -0.2   0.0
   5    0.0  -0.2  -0.2  -0.2  -0.2  -0.2  -0.2  -0.2  -0.2  -0.2  -0.2  -0.2  -0.2  -0.2  -0.2  -0.2   0.0
   6    0.0  -0.2  -0.2  -0.2  -0.2  -0.2  -0.2  -0.2  -0.2  -0.2  -0.2  -0.2  -0.2  -0.2  -0.2  -0.2   0.0
   7    0.0  -0.2  -0.2  -0.2  -0.2  -0.2  -0.2  -0.2  -0.2  -0.2  -0.2  -0.2  -0.2  -0.2  -0.2  -0.2   0.0
   8    0.0  -0.2  -0.2  -0.2  -0.2  -0.2  -0.2  -0.2  -0.2  -0.2  -0.2  -0.2  -0.2  -0.2  -0.2  -0.2   0.0
   9    0.0  -0.2  -0.2  -0.2  -0.2  -0.2  -0.2  -0.2  -0.2  -0.2  -0.2  -0.2  -0.2  -0.2  -0.2  -0.2   0.0
  10    0.0  -0.2  -0.2  -0.2  -0.2  -0.2  -0.2  -0.2  -0.2  -0.2  -0.2  -0.2  -0.2  -0.2  -0.2  -0.2   0.0
  11    0.0  -0.2  -0.2  -0.2  -0.2  -0.2  -0.2  -0.2  -0.2  -0.2  -0.2  -0.2  -0.2  -0.2  -0.2  -0.2   0.0
  12    0.0  -0.2  -0.2  -0.2  -0.2  -0.2  -0.2  -0.2  -0.2  -0.2  -0.2  -0.2  -0.2  -0.2  -0.2  -0.2   0.0
  13    0.0  -0.2  -0.2  -0.2  -0.2  -0.2  -0.2  -0.2  -0.2  -0.2  -0.2  -0.2  -0.2  -0.2  -0.2  -0.2   0.0
  14    0.0  -0.2  -0.2  -0.2  -0.2  -0.2  -0.2  -0.2  -0.2  -0.2  -0.2  -0.2  -0.2  -0.2  -0.2  -0.2   0.0
  15    0.0  -0.2  -0.2  -0.2  -0.2  -0.2  -0.2  -0.2  -0.2  -0.2  -0.2  -0.2  -0.2  -0.2  -0.2  -0.2   0.0
  16    0.0  -0.2  -0.2  -0.2  -0.2  -0.2  -0.2  -0.2  -0.2  -0.2  -0.2  -0.2  -0.2  -0.2  -0.2  -0.2   0.0
  17    0.0   0.0   0.0   0.0   0.0   0.0   0.0   0.0   0.0   0.0   0.0   0.0   0.0   0.0   0.0   0.0   0.0

    HYD. COND. ALONG ROWS =   30.0000     FOR LAYER   5



                   WETDRY PARAMETER FOR LAYER   5
 READING ON UNIT   10 WITH FORMAT: (10F13.0)           

         1     2     3     4     5     6     7     8     9    10    11    12    13    14    15    16    17
 .........................................................................................................
   1    0.0   0.0   0.0   0.0   0.0   0.0   0.0   0.0   0.0   0.0   0.0   0.0   0.0   0.0   0.0   0.0   0.0
   2    0.0  -0.2  -0.2  -0.2  -0.2  -0.2  -0.2  -0.2  -0.2  -0.2  -0.2  -0.2  -0.2  -0.2  -0.2  -0.2   0.0
   3    0.0  -0.2  -0.2  -0.2  -0.2  -0.2  -0.2  -0.2  -0.2  -0.2  -0.2  -0.2  -0.2  -0.2  -0.2  -0.2   0.0
   4    0.0  -0.2  -0.2  -0.2  -0.2  -0.2  -0.2  -0.2  -0.2  -0.2  -0.2  -0.2  -0.2  -0.2  -0.2  -0.2   0.0
   5    0.0  -0.2  -0.2  -0.2  -0.2  -0.2  -0.2  -0.2  -0.2  -0.2  -0.2  -0.2  -0.2  -0.2  -0.2  -0.2   0.0
   6    0.0  -0.2  -0.2  -0.2  -0.2  -0.2  -0.2  -0.2  -0.2  -0.2  -0.2  -0.2  -0.2  -0.2  -0.2  -0.2   0.0
   7    0.0  -0.2  -0.2  -0.2  -0.2  -0.2  -0.2  -0.2  -0.2  -0.2  -0.2  -0.2  -0.2  -0.2  -0.2  -0.2   0.0
   8    0.0  -0.2  -0.2  -0.2  -0.2  -0.2  -0.2  -0.2  -0.2  -0.2  -0.2  -0.2  -0.2  -0.2  -0.2  -0.2   0.0
   9    0.0  -0.2  -0.2  -0.2  -0.2  -0.2  -0.2  -0.2  -0.2  -0.2  -0.2  -0.2  -0.2  -0.2  -0.2  -0.2   0.0
  10    0.0  -0.2  -0.2  -0.2  -0.2  -0.2  -0.2  -0.2  -0.2  -0.2  -0.2  -0.2  -0.2  -0.2  -0.2  -0.2   0.0
  11    0.0  -0.2  -0.2  -0.2  -0.2  -0.2  -0.2  -0.2  -0.2  -0.2  -0.2  -0.2  -0.2  -0.2  -0.2  -0.2   0.0
  12    0.0  -0.2  -0.2  -0.2  -0.2  -0.2  -0.2  -0.2  -0.2  -0.2  -0.2  -0.2  -0.2  -0.2  -0.2  -0.2   0.0
  13    0.0  -0.2  -0.2  -0.2  -0.2  -0.2  -0.2  -0.2  -0.2  -0.2  -0.2  -0.2  -0.2  -0.2  -0.2  -0.2   0.0
  14    0.0  -0.2  -0.2  -0.2  -0.2  -0.2  -0.2  -0.2  -0.2  -0.2  -0.2  -0.2  -0.2  -0.2  -0.2  -0.2   0.0
  15    0.0  -0.2  -0.2  -0.2  -0.2  -0.2  -0.2  -0.2  -0.2  -0.2  -0.2  -0.2  -0.2  -0.2  -0.2  -0.2   0.0
  16    0.0  -0.2  -0.2  -0.2  -0.2  -0.2  -0.2  -0.2  -0.2  -0.2  -0.2  -0.2  -0.2  -0.2  -0.2  -0.2   0.0
  17    0.0   0.0   0.0   0.0   0.0   0.0   0.0   0.0   0.0   0.0   0.0   0.0   0.0   0.0   0.0   0.0   0.0


     0 Evapotranspiration parameters


     0 Recharge parameters
 TIMES FOR SPECIFIED-FLOW AND HEAD VALUES WILL BE READ ON UNIT  21 AND
 MULTIPLIED BY   1.000    .
     1 TIMES FOR SPECIFYING FLOWS AND HEADS:
                       1
                 ------------
                    0.000    

 CELL INDICIES AND SPECIFIED-HEAD VALUES WILL BE READ ON UNIT  21. HEAD VALUES
 WILL BE MULTIPLIED BY   1.000    .
 LAYER  ROW  COL IAUX             HEAD VALUES
 -------------------------------
    1    1    1   64   160.0    
    1    2    1   64   160.0    
    1    3    1   64   160.0    
    1    4    1   64   160.0    
    1    5    1   64   160.0    
    1    6    1   64   160.0    
    1    7    1   64   160.0    
    1    8    1   64   160.0    
    1    9    1   64   160.0    
    1   10    1   64   160.0    
    1   11    1   64   160.0    
    1   12    1   64   160.0    
    1   13    1   64   160.0    
    1   14    1   64   160.0    
    1   15    1   64   160.0    
    1   16    1   64   160.0    
    1   17    1   64   160.0    
    1    1   17   64   140.0    
    1    2   17   64   140.0    
    1    3   17   64   140.0    
    1    4   17   64   140.0    
    1    5   17   64   140.0    
    1    6   17   64   140.0    
    1    7   17   64   140.0    
    1    8   17   64   140.0    
    1    9   17   64   140.0    
    1   10   17   64   140.0    
    1   11   17   64   140.0    
    1   12   17   64   140.0    
    1   13   17   64   140.0    
    1   14   17   64   140.0    
    1   15   17   64   140.0    
    1   16   17   64   140.0    
    1   17   17   64   140.0    
    2    1    1   64   160.0    
    2    2    1   64   160.0    
    2    3    1   64   160.0    
    2    4    1   64   160.0    
    2    5    1   64   160.0    
    2    6    1   64   160.0    
    2    7    1   64   160.0    
    2    8    1   64   160.0    
    2    9    1   64   160.0    
    2   10    1   64   160.0    
    2   11    1   64   160.0    
    2   12    1   64   160.0    
    2   13    1   64   160.0    
    2   14    1   64   160.0    
    2   15    1   64   160.0    
    2   16    1   64   160.0    
    2   17    1   64   160.0    
    2    1   17   64   140.0    
    2    2   17   64   140.0    
    2    3   17   64   140.0    
    2    4   17   64   140.0    
    2    5   17   64   140.0    
    2    6   17   64   140.0    
    2    7   17   64   140.0    
    2    8   17   64   140.0    
    2    9   17   64   140.0    
    2   10   17   64   140.0    
    2   11   17   64   140.0    
    2   12   17   64   140.0    
    2   13   17   64   140.0    
    2   14   17   64   140.0    
    2   15   17   64   140.0    
    2   16   17   64   140.0    
    2   17   17   64   140.0    
    3    1    1   64   160.0    
    3    2    1   64   160.0    
    3    3    1   64   160.0    
    3    4    1   64   160.0    
    3    5    1   64   160.0    
    3    6    1   64   160.0    
    3    7    1   64   160.0    
    3    8    1   64   160.0    
    3    9    1   64   160.0    
    3   10    1   64   160.0    
    3   11    1   64   160.0    
    3   12    1   64   160.0    
    3   13    1   64   160.0    
    3   14    1   64   160.0    
    3   15    1   64   160.0    
    3   16    1   64   160.0    
    3   17    1   64   160.0    
    3    1   17   64   140.0    
    3    2   17   64   140.0    
    3    3   17   64   140.0    
    3    4   17   64   140.0    
    3    5   17   64   140.0    
    3    6   17   64   140.0    
    3    7   17   64   140.0    
    3    8   17   64   140.0    
    3    9   17   64   140.0    
    3   10   17   64   140.0    
    3   11   17   64   140.0    
    3   12   17   64   140.0    
    3   13   17   64   140.0    
    3   14   17   64   140.0    
    3   15   17   64   140.0    
    3   16   17   64   140.0    
    3   17   17   64   140.0    
    4    1    1   64   160.0    
    4    2    1   64   160.0    
    4    3    1   64   160.0    
    4    4    1   64   160.0    
    4    5    1   64   160.0    
    4    6    1   64   160.0    
    4    7    1   64   160.0    
    4    8    1   64   160.0    
    4    9    1   64   160.0    
    4   10    1   64   160.0    
    4   11    1   64   160.0    
    4   12    1   64   160.0    
    4   13    1   64   160.0    
    4   14    1   64   160.0    
    4   15    1   64   160.0    
    4   16    1   64   160.0    
    4   17    1   64   160.0    
    4    1   17   64   140.0    
    4    2   17   64   140.0    
    4    3   17   64   140.0    
    4    4   17   64   140.0    
    4    5   17   64   140.0    
    4    6   17   64   140.0    
    4    7   17   64   140.0    
    4    8   17   64   140.0    
    4    9   17   64   140.0    
    4   10   17   64   140.0    
    4   11   17   64   140.0    
    4   12   17   64   140.0    
    4   13   17   64   140.0    
    4   14   17   64   140.0    
    4   15   17   64   140.0    
    4   16   17   64   140.0    
    4   17   17   64   140.0    
    5    1    1   64   160.0    
    5    2    1   64   160.0    
    5    3    1   64   160.0    
    5    4    1   64   160.0    
    5    5    1   64   160.0    
    5    6    1   64   160.0    
    5    7    1   64   160.0    
    5    8    1   64   160.0    
    5    9    1   64   160.0    
    5   10    1   64   160.0    
    5   11    1   64   160.0    
    5   12    1   64   160.0    
    5   13    1   64   160.0    
    5   14    1   64   160.0    
    5   15    1   64   160.0    
    5   16    1   64   160.0    
    5   17    1   64   160.0    
    5    1   17   64   140.0    
    5    2   17   64   140.0    
    5    3   17   64   140.0    
    5    4   17   64   140.0    
    5    5   17   64   140.0    
    5    6   17   64   140.0    
    5    7   17   64   140.0    
    5    8   17   64   140.0    
    5    9   17   64   140.0    
    5   10   17   64   140.0    
    5   11   17   64   140.0    
    5   12   17   64   140.0    
    5   13   17   64   140.0    
    5   14   17   64   140.0    
    5   15   17   64   140.0    
    5   16   17   64   140.0    
    5   17   17   64   140.0    
    1    1    2   64   158.9    
    1    1    3   64   157.3    
    1    1    4   64   155.8    
    1    1    5   64   154.2    
    1    1    6   64   152.7    
    1    1    7   64   151.5    
    1    1    8   64   150.8    
    1    1    9   64   150.0    
    1    1   10   64   149.2    
    1    1   11   64   148.5    
    1    1   12   64   147.3    
    1    1   13   64   145.8    
    1    1   14   64   144.2    
    1    1   15   64   142.7    
    1    1   16   64   141.1    
    1   17    2   64   158.9    
    1   17    3   64   157.3    
    1   17    4   64   155.8    
    1   17    5   64   154.2    
    1   17    6   64   152.7    
    1   17    7   64   151.5    
    1   17    8   64   150.8    
    1   17    9   64   150.0    
    1   17   10   64   149.2    
    1   17   11   64   148.5    
    1   17   12   64   147.3    
    1   17   13   64   145.8    
    1   17   14   64   144.2    
    1   17   15   64   142.7    
    1   17   16   64   141.1    
    2    1    2   64   158.9    
    2    1    3   64   157.3    
    2    1    4   64   155.8    
    2    1    5   64   154.2    
    2    1    6   64   152.7    
    2    1    7   64   151.5    
    2    1    8   64   150.8    
    2    1    9   64   150.0    
    2    1   10   64   149.2    
    2    1   11   64   148.5    
    2    1   12   64   147.3    
    2    1   13   64   145.8    
    2    1   14   64   144.2    
    2    1   15   64   142.7    
    2    1   16   64   141.1    
    2   17    2   64   158.9    
    2   17    3   64   157.3    
    2   17    4   64   155.8    
    2   17    5   64   154.2    
    2   17    6   64   152.7    
    2   17    7   64   151.5    
    2   17    8   64   150.8    
    2   17    9   64   150.0    
    2   17   10   64   149.2    
    2   17   11   64   148.5    
    2   17   12   64   147.3    
    2   17   13   64   145.8    
    2   17   14   64   144.2    
    2   17   15   64   142.7    
    2   17   16   64   141.1    
    3    1    2   64   158.9    
    3    1    3   64   157.3    
    3    1    4   64   155.8    
    3    1    5   64   154.2    
    3    1    6   64   152.7    
    3    1    7   64   151.5    
    3    1    8   64   150.8    
    3    1    9   64   150.0    
    3    1   10   64   149.2    
    3    1   11   64   148.5    
    3    1   12   64   147.3    
    3    1   13   64   145.8    
    3    1   14   64   144.2    
    3    1   15   64   142.7    
    3    1   16   64   141.1    
    3   17    2   64   158.9    
    3   17    3   64   157.3    
    3   17    4   64   155.8    
    3   17    5   64   154.2    
    3   17    6   64   152.7    
    3   17    7   64   151.5    
    3   17    8   64   150.8    
    3   17    9   64   150.0    
    3   17   10   64   149.2    
    3   17   11   64   148.5    
    3   17   12   64   147.3    
    3   17   13   64   145.8    
    3   17   14   64   144.2    
    3   17   15   64   142.7    
    3   17   16   64   141.1    
    4    1    2   64   158.9    
    4    1    3   64   157.3    
    4    1    4   64   155.8    
    4    1    5   64   154.2    
    4    1    6   64   152.7    
    4    1    7   64   151.5    
    4    1    8   64   150.8    
    4    1    9   64   150.0    
    4    1   10   64   149.2    
    4    1   11   64   148.5    
    4    1   12   64   147.3    
    4    1   13   64   145.8    
    4    1   14   64   144.2    
    4    1   15   64   142.7    
    4    1   16   64   141.1    
    4   17    2   64   158.9    
    4   17    3   64   157.3    
    4   17    4   64   155.8    
    4   17    5   64   154.2    
    4   17    6   64   152.7    
    4   17    7   64   151.5    
    4   17    8   64   150.8    
    4   17    9   64   150.0    
    4   17   10   64   149.2    
    4   17   11   64   148.5    
    4   17   12   64   147.3    
    4   17   13   64   145.8    
    4   17   14   64   144.2    
    4   17   15   64   142.7    
    4   17   16   64   141.1    
    5    1    2   64   158.9    
    5    1    3   64   157.3    
    5    1    4   64   155.8    
    5    1    5   64   154.2    
    5    1    6   64   152.7    
    5    1    7   64   151.5    
    5    1    8   64   150.8    
    5    1    9   64   150.0    
    5    1   10   64   149.2    
    5    1   11   64   148.5    
    5    1   12   64   147.3    
    5    1   13   64   145.8    
    5    1   14   64   144.2    
    5    1   15   64   142.7    
    5    1   16   64   141.1    
    5   17    2   64   158.9    
    5   17    3   64   157.3    
    5   17    4   64   155.8    
    5   17    5   64   154.2    
    5   17    6   64   152.7    
    5   17    7   64   151.5    
    5   17    8   64   150.8    
    5   17    9   64   150.0    
    5   17   10   64   149.2    
    5   17   11   64   148.5    
    5   17   12   64   147.3    
    5   17   13   64   145.8    
    5   17   14   64   144.2    
    5   17   15   64   142.7    
    5   17   16   64   141.1    
1
                            STRESS PERIOD NO.    1, LENGTH =   1.000000    
                            -----------------------------------------------

                              NUMBER OF TIME STEPS =     1

                               MULTIPLIER FOR DELT =     1.000

                            INITIAL TIME STEP SIZE =   1.000000    



                         ET SURFACE
 READING ON UNIT   11 WITH FORMAT: (19F6.1)            

         1     2     3     4     5     6     7     8     9    10    11    12    13    14    15    16    17
 .........................................................................................................
   1  160.0 159.0 157.4 155.9 154.3 152.7 151.6 150.8 150.0 149.2 148.4 147.3 145.7 144.1 142.6 141.0 140.0
   2  160.0 159.0 157.4 155.9 154.3 152.7 151.6 150.8 150.0 149.2 148.4 147.3 145.7 144.1 142.6 141.0 140.0
   3  160.0 159.0 157.4 155.9 154.3 152.7 151.6 150.8 150.0 149.2 148.4 147.3 145.7 144.1 142.6 141.0 140.0
   4  160.0 159.0 157.4 155.9 154.3 152.7 151.6 150.8 150.0 149.2 148.4 147.3 145.7 144.1 142.6 141.0 140.0
   5  160.0 159.0 157.4 155.9 154.3 152.7 151.6 150.8 150.0 149.2 148.4 147.3 145.7 144.1 142.6 141.0 140.0
   6  160.0 159.0 157.4 155.9 154.3 152.7 151.6 150.8 150.0 149.2 148.4 147.3 145.7 144.1 142.6 141.0 140.0
   7  160.0 159.0 157.4 155.9 154.3 152.7 105.0 105.0 105.0 105.0 105.0 147.3 145.7 144.1 142.6 141.0 140.0
   8  160.0 159.0 157.4 155.9 154.3 152.7 105.0  95.0  95.0  95.0 105.0 147.3 145.7 144.1 142.6 141.0 140.0
   9  160.0 159.0 157.4 155.9 154.3 152.7 105.0  95.0  95.0  95.0 105.0 147.3 145.7 144.1 142.6 141.0 140.0
  10  160.0 159.0 157.4 155.9 154.3 152.7 105.0  95.0  95.0  95.0 105.0 147.3 145.7 144.1 142.6 141.0 140.0
  11  160.0 159.0 157.4 155.9 154.3 152.7 105.0 105.0 105.0 105.0 105.0 147.3 145.7 144.1 142.6 141.0 140.0
  12  160.0 159.0 157.4 155.9 154.3 152.7 151.6 150.8 150.0 149.2 148.4 147.3 145.7 144.1 142.6 141.0 140.0
  13  160.0 159.0 157.4 155.9 154.3 152.7 151.6 150.8 150.0 149.2 148.4 147.3 145.7 144.1 142.6 141.0 140.0
  14  160.0 159.0 157.4 155.9 154.3 152.7 151.6 150.8 150.0 149.2 148.4 147.3 145.7 144.1 142.6 141.0 140.0
  15  160.0 159.0 157.4 155.9 154.3 152.7 151.6 150.8 150.0 149.2 148.4 147.3 145.7 144.1 142.6 141.0 140.0
  16  160.0 159.0 157.4 155.9 154.3 152.7 151.6 150.8 150.0 149.2 148.4 147.3 145.7 144.1 142.6 141.0 140.0
  17  160.0 159.0 157.4 155.9 154.3 152.7 151.6 150.8 150.0 149.2 148.4 147.3 145.7 144.1 142.6 141.0 140.0

  EVAPOTRANSPIRATION RATE =  1.410000E-02

         EXTINCTION DEPTH =   15.0000    

                 RECHARGE =  1.160000E-02


 LAKE PACKAGE ACTIVE:  CALCULATED LAKE STAGE FOR EACH TIME STEP WILL BE STORED IN HNEW ARRAY.



 INITIAL LAKE STAGE:  LAKE    STAGE    SS MIN    SS MAX

                        1   110.000   100.000   170.000




 If any subsequent steady-state stress periods, min. and max. stages for each lake will be read in Record 9a.





                      LAKE ID ARRAY FOR LAYER   1
 READING ON UNIT   16 WITH FORMAT: (24I3)              

        1   2   3   4   5   6   7   8   9  10  11  12  13  14  15  16  17
 ........................................................................
   1    0   0   0   0   0   0   0   0   0   0   0   0   0   0   0   0   0
   2    0   0   0   0   0   0   0   0   0   0   0   0   0   0   0   0   0
   3    0   0   0   0   0   0   0   0   0   0   0   0   0   0   0   0   0
   4    0   0   0   0   0   0   0   0   0   0   0   0   0   0   0   0   0
   5    0   0   0   0   0   0   0   0   0   0   0   0   0   0   0   0   0
   6    0   0   0   0   0   0   0   0   0   0   0   0   0   0   0   0   0
   7    0   0   0   0   0   0   1   1   1   1   1   0   0   0   0   0   0
   8    0   0   0   0   0   0   1   1   1   1   1   0   0   0   0   0   0
   9    0   0   0   0   0   0   1   1   1   1   1   0   0   0   0   0   0
  10    0   0   0   0   0   0   1   1   1   1   1   0   0   0   0   0   0
  11    0   0   0   0   0   0   1   1   1   1   1   0   0   0   0   0   0
  12    0   0   0   0   0   0   0   0   0   0   0   0   0   0   0   0   0
  13    0   0   0   0   0   0   0   0   0   0   0   0   0   0   0   0   0
  14    0   0   0   0   0   0   0   0   0   0   0   0   0   0   0   0   0
  15    0   0   0   0   0   0   0   0   0   0   0   0   0   0   0   0   0
  16    0   0   0   0   0   0   0   0   0   0   0   0   0   0   0   0   0
  17    0   0   0   0   0   0   0   0   0   0   0   0   0   0   0   0   0



                      LAKE ID ARRAY FOR LAYER   2
 READING ON UNIT   16 WITH FORMAT: (24I3)              

        1   2   3   4   5   6   7   8   9  10  11  12  13  14  15  16  17
 ........................................................................
   1    0   0   0   0   0   0   0   0   0   0   0   0   0   0   0   0   0
   2    0   0   0   0   0   0   0   0   0   0   0   0   0   0   0   0   0
   3    0   0   0   0   0   0   0   0   0   0   0   0   0   0   0   0   0
   4    0   0   0   0   0   0   0   0   0   0   0   0   0   0   0   0   0
   5    0   0   0   0   0   0   0   0   0   0   0   0   0   0   0   0   0
   6    0   0   0   0   0   0   0   0   0   0   0   0   0   0   0   0   0
   7    0   0   0   0   0   0   0   0   0   0   0   0   0   0   0   0   0
   8    0   0   0   0   0   0   0   1   1   1   0   0   0   0   0   0   0
   9    0   0   0   0   0   0   0   1   1   1   0   0   0   0   0   0   0
  10    0   0   0   0   0   0   0   1   1   1   0   0   0   0   0   0   0
  11    0   0   0   0   0   0   0   0   0   0   0   0   0   0   0   0   0
  12    0   0   0   0   0   0   0   0   0   0   0   0   0   0   0   0   0
  13    0   0   0   0   0   0   0   0   0   0   0   0   0   0   0   0   0
  14    0   0   0   0   0   0   0   0   0   0   0   0   0   0   0   0   0
  15    0   0   0   0   0   0   0   0   0   0   0   0   0   0   0   0   0
  16    0   0   0   0   0   0   0   0   0   0   0   0   0   0   0   0   0
  17    0   0   0   0   0   0   0   0   0   0   0   0   0   0   0   0   0

            LAKE ID ARRAY =              0 FOR LAYER   3

            LAKE ID ARRAY =              0 FOR LAYER   4

            LAKE ID ARRAY =              0 FOR LAYER   5





   LAKEBED LEAKANCE ARRAY =  0.100000     FOR LAYER   1

   LAKEBED LEAKANCE ARRAY =  0.100000     FOR LAYER   2

   LAKEBED LEAKANCE ARRAY =  0.100000     FOR LAYER   3

   LAKEBED LEAKANCE ARRAY =  0.100000     FOR LAYER   4

   LAKEBED LEAKANCE ARRAY =  0.100000     FOR LAYER   5

       LOCATIONS, LAKE #, INTERFACE TYPE FOR GRID CELLS ADJACENT TO LAKES:
     -----------------------------------------------------------------------
     LAYER #    ROW #    COLUMN #   LAKE #  INTERFACE TYPE  LAKEBED LEAKANCE
         1         7         6         1         2             0.10000
         1         8         6         1         2             0.10000
         1         9         6         1         2             0.10000
         1        10         6         1         2             0.10000
         1        11         6         1         2             0.10000
         1         6         7         1         3             0.10000
         2         7         7         1         6             0.10000
         2         8         7         1         6             0.10000
         2         8         7         1         2             0.10000
         2         9         7         1         6             0.10000
         2         9         7         1         2             0.10000
         2        10         7         1         6             0.10000
         2        10         7         1         2             0.10000
         2        11         7         1         6             0.10000
         1        12         7         1         4             0.10000
         1         6         8         1         3             0.10000
         2         7         8         1         6             0.10000
         2         7         8         1         3             0.10000
         3         8         8         1         6             0.10000
         3         9         8         1         6             0.10000
         3        10         8         1         6             0.10000
         2        11         8         1         6             0.10000
         2        11         8         1         4             0.10000
         1        12         8         1         4             0.10000
         1         6         9         1         3             0.10000
         2         7         9         1         6             0.10000
         2         7         9         1         3             0.10000
         3         8         9         1         6             0.10000
         3         9         9         1         6             0.10000
         3        10         9         1         6             0.10000
         2        11         9         1         6             0.10000
         2        11         9         1         4             0.10000
         1        12         9         1         4             0.10000
         1         6        10         1         3             0.10000
         2         7        10         1         6             0.10000
         2         7        10         1         3             0.10000
         3         8        10         1         6             0.10000
         3         9        10         1         6             0.10000
         3        10        10         1         6             0.10000
         2        11        10         1         6             0.10000
         2        11        10         1         4             0.10000
         1        12        10         1         4             0.10000
         1         6        11         1         3             0.10000
         2         7        11         1         6             0.10000
         2         8        11         1         6             0.10000
         2         8        11         1         1             0.10000
         2         9        11         1         6             0.10000
         2         9        11         1         1             0.10000
         2        10        11         1         6             0.10000
         2        10        11         1         1             0.10000
         2        11        11         1         6             0.10000
         1        12        11         1         4             0.10000
         1         7        12         1         1             0.10000
         1         8        12         1         1             0.10000
         1         9        12         1         1             0.10000
         1        10        12         1         1             0.10000
         1        11        12         1         1             0.10000

     NUMBER OF LAKE-AQUIFER CELL INTERFACES =    57


 STAGE/VOLUME RELATION FOR LAKE  1

       STAGE       VOLUME         AREA

   9.7000E+01   0.0000E+00   2.2500E+06
   9.7200E+01   4.4999E+05   2.2500E+06
   9.7400E+01   8.9999E+05   2.2500E+06
   9.7600E+01   1.3500E+06   2.2500E+06
   9.7800E+01   1.8000E+06   2.2500E+06
   9.8000E+01   2.2500E+06   2.2500E+06
   9.8200E+01   2.7000E+06   2.2500E+06
   9.8400E+01   3.1500E+06   2.2500E+06
   9.8600E+01   3.5999E+06   2.2500E+06
   9.8800E+01   4.0499E+06   2.2500E+06
   9.9000E+01   4.4999E+06   2.2500E+06
   9.9200E+01   4.9499E+06   2.2500E+06
   9.9400E+01   5.3999E+06   2.2500E+06
   9.9600E+01   5.8499E+06   2.2500E+06
   9.9800E+01   6.2999E+06   2.2500E+06
   1.0000E+02   6.7499E+06   2.2500E+06
   1.0020E+02   7.1999E+06   2.2500E+06
   1.0040E+02   7.6499E+06   2.2500E+06
   1.0060E+02   8.0999E+06   2.2500E+06
   1.0080E+02   8.5499E+06   2.2500E+06
   1.0100E+02   8.9999E+06   2.2500E+06
   1.0120E+02   9.4499E+06   2.2500E+06
   1.0140E+02   9.8998E+06   2.2500E+06
   1.0160E+02   1.0350E+07   2.2500E+06
   1.0180E+02   1.0800E+07   2.2500E+06
   1.0200E+02   1.1250E+07   2.2500E+06
   1.0220E+02   1.1700E+07   2.2500E+06
   1.0240E+02   1.2150E+07   2.2500E+06
   1.0260E+02   1.2600E+07   2.2500E+06
   1.0280E+02   1.3050E+07   2.2500E+06
   1.0300E+02   1.3500E+07   2.2500E+06
   1.0320E+02   1.3950E+07   2.2500E+06
   1.0340E+02   1.4400E+07   2.2500E+06
   1.0360E+02   1.4850E+07   2.2500E+06
   1.0380E+02   1.5300E+07   2.2500E+06
   1.0400E+02   1.5750E+07   2.2500E+06
   1.0420E+02   1.6200E+07   2.2500E+06
   1.0440E+02   1.6650E+07   2.2500E+06
   1.0460E+02   1.7100E+07   2.2500E+06
   1.0480E+02   1.7550E+07   2.2500E+06
   1.0500E+02   1.8000E+07   2.2500E+06
   1.0520E+02   1.8450E+07   2.2500E+06
   1.0540E+02   1.8900E+07   2.2500E+06
   1.0560E+02   1.9350E+07   2.2500E+06
   1.0580E+02   1.9800E+07   2.2500E+06
   1.0600E+02   2.0250E+07   2.2500E+06
   1.0620E+02   2.0700E+07   2.2500E+06
   1.0640E+02   2.1150E+07   2.2500E+06
   1.0660E+02   2.1600E+07   2.2500E+06
   1.0680E+02   2.2050E+07   2.2500E+06
   1.0700E+02   2.2500E+07   2.2500E+06
   1.0720E+02   2.3749E+07   6.2500E+06
   1.0740E+02   2.4999E+07   6.2500E+06
   1.0760E+02   2.6249E+07   6.2500E+06
   1.0780E+02   2.7499E+07   6.2500E+06
   1.0800E+02   2.8749E+07   6.2500E+06
   1.0820E+02   2.9999E+07   6.2500E+06
   1.0840E+02   3.1249E+07   6.2500E+06
   1.0860E+02   3.2499E+07   6.2500E+06
   1.0880E+02   3.3749E+07   6.2500E+06
   1.0900E+02   3.4999E+07   6.2500E+06
   1.0920E+02   3.6249E+07   6.2500E+06
   1.0940E+02   3.7499E+07   6.2500E+06
   1.0960E+02   3.8749E+07   6.2500E+06
   1.0980E+02   3.9999E+07   6.2500E+06
   1.1000E+02   4.1249E+07   6.2500E+06
   1.1020E+02   4.2499E+07   6.2500E+06
   1.1040E+02   4.3749E+07   6.2500E+06
   1.1060E+02   4.4999E+07   6.2500E+06
   1.1080E+02   4.6249E+07   6.2500E+06
   1.1100E+02   4.7499E+07   6.2500E+06
   1.1120E+02   4.8749E+07   6.2500E+06
   1.1140E+02   4.9999E+07   6.2500E+06
   1.1160E+02   5.1249E+07   6.2500E+06
   1.1180E+02   5.2499E+07   6.2500E+06
   1.1200E+02   5.3749E+07   6.2500E+06
   1.1220E+02   5.4999E+07   6.2500E+06
   1.1240E+02   5.6249E+07   6.2500E+06
   1.1260E+02   5.7499E+07   6.2500E+06
   1.1280E+02   5.8748E+07   6.2500E+06
   1.1300E+02   5.9998E+07   6.2500E+06
   1.1320E+02   6.1248E+07   6.2500E+06
   1.1340E+02   6.2498E+07   6.2500E+06
   1.1360E+02   6.3748E+07   6.2500E+06
   1.1380E+02   6.4998E+07   6.2500E+06
   1.1400E+02   6.6248E+07   6.2500E+06
   1.1420E+02   6.7498E+07   6.2500E+06
   1.1440E+02   6.8748E+07   6.2500E+06
   1.1460E+02   6.9998E+07   6.2500E+06
   1.1480E+02   7.1248E+07   6.2500E+06
   1.1500E+02   7.2498E+07   6.2500E+06
   1.1520E+02   7.3748E+07   6.2500E+06
   1.1540E+02   7.4998E+07   6.2500E+06
   1.1560E+02   7.6248E+07   6.2500E+06
   1.1580E+02   7.7498E+07   6.2500E+06
   1.1600E+02   7.8748E+07   6.2500E+06
   1.1620E+02   7.9998E+07   6.2500E+06
   1.1640E+02   8.1248E+07   6.2500E+06
   1.1660E+02   8.2498E+07   6.2500E+06
   1.1680E+02   8.3748E+07   6.2500E+06
   1.1700E+02   8.4998E+07   6.2500E+06
   1.1720E+02   8.6248E+07   6.2500E+06
   1.1740E+02   8.7498E+07   6.2500E+06
   1.1760E+02   8.8748E+07   6.2500E+06
   1.1780E+02   8.9998E+07   6.2500E+06
   1.1800E+02   9.1248E+07   6.2500E+06
   1.1820E+02   9.2498E+07   6.2500E+06
   1.1840E+02   9.3748E+07   6.2500E+06
   1.1860E+02   9.4998E+07   6.2500E+06
   1.1880E+02   9.6248E+07   6.2500E+06
   1.1900E+02   9.7498E+07   6.2500E+06
   1.1920E+02   9.8748E+07   6.2500E+06
   1.1940E+02   9.9998E+07   6.2500E+06
   1.1960E+02   1.0125E+08   6.2500E+06
   1.1980E+02   1.0250E+08   6.2500E+06
   1.2000E+02   1.0375E+08   6.2500E+06
   1.2020E+02   1.0500E+08   6.2500E+06
   1.2040E+02   1.0625E+08   6.2500E+06
   1.2060E+02   1.0750E+08   6.2500E+06
   1.2080E+02   1.0875E+08   6.2500E+06
   1.2100E+02   1.1000E+08   6.2500E+06
   1.2120E+02   1.1125E+08   6.2500E+06
   1.2140E+02   1.1250E+08   6.2500E+06
   1.2160E+02   1.1375E+08   6.2500E+06
   1.2180E+02   1.1500E+08   6.2500E+06
   1.2200E+02   1.1625E+08   6.2500E+06
   1.2220E+02   1.1750E+08   6.2500E+06
   1.2240E+02   1.1875E+08   6.2500E+06
   1.2260E+02   1.2000E+08   6.2500E+06
   1.2280E+02   1.2125E+08   6.2500E+06
   1.2300E+02   1.2250E+08   6.2500E+06
   1.2320E+02   1.2375E+08   6.2500E+06
   1.2340E+02   1.2500E+08   6.2500E+06
   1.2360E+02   1.2625E+08   6.2500E+06
   1.2380E+02   1.2750E+08   6.2500E+06
   1.2400E+02   1.2875E+08   6.2500E+06
   1.2420E+02   1.3000E+08   6.2500E+06
   1.2440E+02   1.3125E+08   6.2500E+06
   1.2460E+02   1.3250E+08   6.2500E+06
   1.2480E+02   1.3375E+08   6.2500E+06
   1.2500E+02   1.3500E+08   6.2500E+06
   1.2520E+02   1.3625E+08   6.2500E+06
   1.2540E+02   1.3750E+08   6.2500E+06
   1.2560E+02   1.3875E+08   6.2500E+06
   1.2580E+02   1.4000E+08   6.2500E+06
   1.2600E+02   1.4125E+08   6.2500E+06
   1.2620E+02   1.4250E+08   6.2500E+06
   1.2640E+02   1.4375E+08   6.2500E+06
   1.2660E+02   1.4500E+08   6.2500E+06
   1.2680E+02   1.4625E+08   6.2500E+06
   1.2700E+02   1.4750E+08   6.2500E+06


 NUMBER OF CONNECTED LAKE SYSTEMS IN SIMULATION IS   0

 LAKE       PRECIP     EVAP     RUNOFF   WITHDRAW   BOTTOM     AREA
----------------------------------------------------------------------
   1     1.160E-02 1.030E-02 0.000E+00  0.000E+00 9.700E+01 6.250E+06




         C               INTERFACE CONDUCTANCES BETWEEN LAKE AND AQUIFER CELLS
   L     O          (IF TYPE = 6, CONDUCTANCE (L^2/T) IS BETWEEN AQUIFER CELL AND OVERLYING LAKE CELL.)
   A     L  L  T    (IF TYPE = 1 TO 4, CONDUCTANCES ARE PER UNIT SATURATED THICKNESS (L/T).)
   Y  R  U  A  Y
   E  O  M  K  P                        LAKEBED      C O N D U C T A N C E S
   R  W  N  E  E     DELTA Y   DELTA X  LEAKANCE   LAKEBED   AQUIFER  COMBINED
 _______________________________________________________________________________
   1  7  6  1  2    5.00E+02  1.00E+03  1.00E-01  5.00E+01  3.00E+01  1.88E+01
   1  8  6  1  2    5.00E+02  1.00E+03  1.00E-01  5.00E+01  3.00E+01  1.88E+01
   1  9  6  1  2    5.00E+02  1.00E+03  1.00E-01  5.00E+01  3.00E+01  1.88E+01
   1 10  6  1  2    5.00E+02  1.00E+03  1.00E-01  5.00E+01  3.00E+01  1.88E+01
   1 11  6  1  2    5.00E+02  1.00E+03  1.00E-01  5.00E+01  3.00E+01  1.88E+01
   1  6  7  1  3    1.00E+03  5.00E+02  1.00E-01  5.00E+01  3.00E+01  1.88E+01
   2  7  7  1  6    5.00E+02  5.00E+02  1.00E-01  2.50E+04  1.50E+06  2.46E+04
   2  8  7  1  6    5.00E+02  5.00E+02  1.00E-01  2.50E+04  1.50E+06  2.46E+04
   2  8  7  1  2    5.00E+02  5.00E+02  1.00E-01  5.00E+01  6.00E+01  2.73E+01
   2  9  7  1  6    5.00E+02  5.00E+02  1.00E-01  2.50E+04  1.50E+06  2.46E+04
   2  9  7  1  2    5.00E+02  5.00E+02  1.00E-01  5.00E+01  6.00E+01  2.73E+01
   2 10  7  1  6    5.00E+02  5.00E+02  1.00E-01  2.50E+04  1.50E+06  2.46E+04
   2 10  7  1  2    5.00E+02  5.00E+02  1.00E-01  5.00E+01  6.00E+01  2.73E+01
   2 11  7  1  6    5.00E+02  5.00E+02  1.00E-01  2.50E+04  1.50E+06  2.46E+04
   1 12  7  1  4    1.00E+03  5.00E+02  1.00E-01  5.00E+01  3.00E+01  1.88E+01
   1  6  8  1  3    1.00E+03  5.00E+02  1.00E-01  5.00E+01  3.00E+01  1.88E+01
   2  7  8  1  6    5.00E+02  5.00E+02  1.00E-01  2.50E+04  1.50E+06  2.46E+04
   2  7  8  1  3    5.00E+02  5.00E+02  1.00E-01  5.00E+01  6.00E+01  2.73E+01
   3  8  8  1  6    5.00E+02  5.00E+02  1.00E-01  2.50E+04  1.50E+06  2.46E+04
   3  9  8  1  6    5.00E+02  5.00E+02  1.00E-01  2.50E+04  1.50E+06  2.46E+04
   3 10  8  1  6    5.00E+02  5.00E+02  1.00E-01  2.50E+04  1.50E+06  2.46E+04
   2 11  8  1  6    5.00E+02  5.00E+02  1.00E-01  2.50E+04  1.50E+06  2.46E+04
   2 11  8  1  4    5.00E+02  5.00E+02  1.00E-01  5.00E+01  6.00E+01  2.73E+01
   1 12  8  1  4    1.00E+03  5.00E+02  1.00E-01  5.00E+01  3.00E+01  1.88E+01
   1  6  9  1  3    1.00E+03  5.00E+02  1.00E-01  5.00E+01  3.00E+01  1.88E+01
   2  7  9  1  6    5.00E+02  5.00E+02  1.00E-01  2.50E+04  1.50E+06  2.46E+04
   2  7  9  1  3    5.00E+02  5.00E+02  1.00E-01  5.00E+01  6.00E+01  2.73E+01
   3  8  9  1  6    5.00E+02  5.00E+02  1.00E-01  2.50E+04  1.50E+06  2.46E+04
   3  9  9  1  6    5.00E+02  5.00E+02  1.00E-01  2.50E+04  1.50E+06  2.46E+04
   3 10  9  1  6    5.00E+02  5.00E+02  1.00E-01  2.50E+04  1.50E+06  2.46E+04
   2 11  9  1  6    5.00E+02  5.00E+02  1.00E-01  2.50E+04  1.50E+06  2.46E+04
   2 11  9  1  4    5.00E+02  5.00E+02  1.00E-01  5.00E+01  6.00E+01  2.73E+01
   1 12  9  1  4    1.00E+03  5.00E+02  1.00E-01  5.00E+01  3.00E+01  1.88E+01
   1  6 10  1  3    1.00E+03  5.00E+02  1.00E-01  5.00E+01  3.00E+01  1.88E+01
   2  7 10  1  6    5.00E+02  5.00E+02  1.00E-01  2.50E+04  1.50E+06  2.46E+04
   2  7 10  1  3    5.00E+02  5.00E+02  1.00E-01  5.00E+01  6.00E+01  2.73E+01
   3  8 10  1  6    5.00E+02  5.00E+02  1.00E-01  2.50E+04  1.50E+06  2.46E+04
   3  9 10  1  6    5.00E+02  5.00E+02  1.00E-01  2.50E+04  1.50E+06  2.46E+04
   3 10 10  1  6    5.00E+02  5.00E+02  1.00E-01  2.50E+04  1.50E+06  2.46E+04
   2 11 10  1  6    5.00E+02  5.00E+02  1.00E-01  2.50E+04  1.50E+06  2.46E+04
   2 11 10  1  4    5.00E+02  5.00E+02  1.00E-01  5.00E+01  6.00E+01  2.73E+01
   1 12 10  1  4    1.00E+03  5.00E+02  1.00E-01  5.00E+01  3.00E+01  1.88E+01
   1  6 11  1  3    1.00E+03  5.00E+02  1.00E-01  5.00E+01  3.00E+01  1.88E+01
   2  7 11  1  6    5.00E+02  5.00E+02  1.00E-01  2.50E+04  1.50E+06  2.46E+04
   2  8 11  1  6    5.00E+02  5.00E+02  1.00E-01  2.50E+04  1.50E+06  2.46E+04
   2  8 11  1  1    5.00E+02  5.00E+02  1.00E-01  5.00E+01  6.00E+01  2.73E+01
   2  9 11  1  6    5.00E+02  5.00E+02  1.00E-01  2.50E+04  1.50E+06  2.46E+04
   2  9 11  1  1    5.00E+02  5.00E+02  1.00E-01  5.00E+01  6.00E+01  2.73E+01
   2 10 11  1  6    5.00E+02  5.00E+02  1.00E-01  2.50E+04  1.50E+06  2.46E+04
   2 10 11  1  1    5.00E+02  5.00E+02  1.00E-01  5.00E+01  6.00E+01  2.73E+01
   2 11 11  1  6    5.00E+02  5.00E+02  1.00E-01  2.50E+04  1.50E+06  2.46E+04
   1 12 11  1  4    1.00E+03  5.00E+02  1.00E-01  5.00E+01  3.00E+01  1.88E+01
   1  7 12  1  1    5.00E+02  1.00E+03  1.00E-01  5.00E+01  3.00E+01  1.88E+01
   1  8 12  1  1    5.00E+02  1.00E+03  1.00E-01  5.00E+01  3.00E+01  1.88E+01
   1  9 12  1  1    5.00E+02  1.00E+03  1.00E-01  5.00E+01  3.00E+01  1.88E+01
   1 10 12  1  1    5.00E+02  1.00E+03  1.00E-01  5.00E+01  3.00E+01  1.88E+01
   1 11 12  1  1    5.00E+02  1.00E+03  1.00E-01  5.00E+01  3.00E+01  1.88E+01


     NOTE: INFORMATION ABOUT CALCULATED LAKE/AQUIFER CONDUCTANCES WHEN USING BCF PACKAGE FOLLOWS: 

 IF WETDRY FLAG NOT TURNED ON, VERTICAL LEAKANCES ARE NOT SAVED:
 THEREFORE, LAKE/AQUIFER CONDUCTANCES ARE BASED SOLELY ON LAKEBED SPECIFICATION




 
 SOLVING FOR HEAD 
 ALL LAKES CONVERGED AFTER   2  ITERATIONS

 AVERAGE SEED = 0.00000194
 MINIMUM SEED = 0.00000137

     5 ITERATION PARAMETERS CALCULATED FROM AVERAGE SEED:

  0.000000E+00 0.962690E+00 0.998608E+00 0.999948E+00 0.999998E+00
 ALL LAKES CONVERGED AFTER   2  ITERATIONS
 ALL LAKES CONVERGED AFTER   2  ITERATIONS
 ALL LAKES CONVERGED AFTER   2  ITERATIONS
 ALL LAKES CONVERGED AFTER   2  ITERATIONS
 ALL LAKES CONVERGED AFTER   2  ITERATIONS
 ALL LAKES CONVERGED AFTER   2  ITERATIONS
 ALL LAKES CONVERGED AFTER   2  ITERATIONS
 ALL LAKES CONVERGED AFTER   2  ITERATIONS
 ALL LAKES CONVERGED AFTER   2  ITERATIONS
 ALL LAKES CONVERGED AFTER   2  ITERATIONS
 ALL LAKES CONVERGED AFTER   2  ITERATIONS
 ALL LAKES CONVERGED AFTER   2  ITERATIONS
 ALL LAKES CONVERGED AFTER   2  ITERATIONS
 ALL LAKES CONVERGED AFTER   2  ITERATIONS
 ALL LAKES CONVERGED AFTER   2  ITERATIONS
 ALL LAKES CONVERGED AFTER   2  ITERATIONS
 ALL LAKES CONVERGED AFTER   2  ITERATIONS
 ALL LAKES CONVERGED AFTER   2  ITERATIONS
 ALL LAKES CONVERGED AFTER   2  ITERATIONS
 ALL LAKES CONVERGED AFTER   2  ITERATIONS
 ALL LAKES CONVERGED AFTER   2  ITERATIONS
 ALL LAKES CONVERGED AFTER   2  ITERATIONS
 ALL LAKES CONVERGED AFTER   2  ITERATIONS
 ALL LAKES CONVERGED AFTER   2  ITERATIONS
 ALL LAKES CONVERGED AFTER   2  ITERATIONS
 ALL LAKES CONVERGED AFTER   2  ITERATIONS
 ALL LAKES CONVERGED AFTER   2  ITERATIONS
 ALL LAKES CONVERGED AFTER   2  ITERATIONS
 ALL LAKES CONVERGED AFTER   2  ITERATIONS
 ALL LAKES CONVERGED AFTER   2  ITERATIONS
 ALL LAKES CONVERGED AFTER   2  ITERATIONS
 ALL LAKES CONVERGED AFTER   2  ITERATIONS
 ALL LAKES CONVERGED AFTER   2  ITERATIONS
 ALL LAKES CONVERGED AFTER   2  ITERATIONS
 ALL LAKES CONVERGED AFTER   2  ITERATIONS
 ALL LAKES CONVERGED AFTER   2  ITERATIONS
 ALL LAKES CONVERGED AFTER   2  ITERATIONS
 ALL LAKES CONVERGED AFTER   2  ITERATIONS
 ALL LAKES CONVERGED AFTER   2  ITERATIONS
 ALL LAKES CONVERGED AFTER   2  ITERATIONS
 ALL LAKES CONVERGED AFTER   2  ITERATIONS
 ALL LAKES CONVERGED AFTER   2  ITERATIONS
 ALL LAKES CONVERGED AFTER   2  ITERATIONS
 ALL LAKES CONVERGED AFTER   2  ITERATIONS
 ALL LAKES CONVERGED AFTER   2  ITERATIONS
 ALL LAKES CONVERGED AFTER   2  ITERATIONS
 ALL LAKES CONVERGED AFTER   2  ITERATIONS
 ALL LAKES CONVERGED AFTER   2  ITERATIONS
 ALL LAKES CONVERGED AFTER   2  ITERATIONS
 ALL LAKES CONVERGED AFTER   2  ITERATIONS
 ALL LAKES CONVERGED AFTER   2  ITERATIONS
 ALL LAKES CONVERGED AFTER   2  ITERATIONS
 ALL LAKES CONVERGED AFTER   2  ITERATIONS
 ALL LAKES CONVERGED AFTER   2  ITERATIONS
 ALL LAKES CONVERGED AFTER   2  ITERATIONS
 ALL LAKES CONVERGED AFTER   2  ITERATIONS
 ALL LAKES CONVERGED AFTER   2  ITERATIONS
 ALL LAKES CONVERGED AFTER   2  ITERATIONS
 ALL LAKES CONVERGED AFTER   2  ITERATIONS
 ALL LAKES CONVERGED AFTER   2  ITERATIONS
 ALL LAKES CONVERGED AFTER   2  ITERATIONS
 ALL LAKES CONVERGED AFTER   2  ITERATIONS
 ALL LAKES CONVERGED AFTER   2  ITERATIONS
 ALL LAKES CONVERGED AFTER   2  ITERATIONS
 ALL LAKES CONVERGED AFTER   2  ITERATIONS
 ALL LAKES CONVERGED AFTER   2  ITERATIONS
 ALL LAKES CONVERGED AFTER   2  ITERATIONS
 ALL LAKES CONVERGED AFTER   2  ITERATIONS
 ALL LAKES CONVERGED AFTER   2  ITERATIONS
 ALL LAKES CONVERGED AFTER   2  ITERATIONS
 ALL LAKES CONVERGED AFTER   2  ITERATIONS
 ALL LAKES CONVERGED AFTER   2  ITERATIONS
 ALL LAKES CONVERGED AFTER   2  ITERATIONS
 ALL LAKES CONVERGED AFTER   2  ITERATIONS
 ALL LAKES CONVERGED AFTER   2  ITERATIONS
 ALL LAKES CONVERGED AFTER   2  ITERATIONS
 ALL LAKES CONVERGED AFTER   2  ITERATIONS
 ALL LAKES CONVERGED AFTER   2  ITERATIONS
 ALL LAKES CONVERGED AFTER   2  ITERATIONS
 ALL LAKES CONVERGED AFTER   2  ITERATIONS
 ALL LAKES CONVERGED AFTER   2  ITERATIONS
 ALL LAKES CONVERGED AFTER   2  ITERATIONS
 ALL LAKES CONVERGED AFTER   2  ITERATIONS
 ALL LAKES CONVERGED AFTER   2  ITERATIONS
 ALL LAKES CONVERGED AFTER   2  ITERATIONS
 ALL LAKES CONVERGED AFTER   2  ITERATIONS
 ALL LAKES CONVERGED AFTER   2  ITERATIONS
 ALL LAKES CONVERGED AFTER   2  ITERATIONS
 ALL LAKES CONVERGED AFTER   2  ITERATIONS
 ALL LAKES CONVERGED AFTER   2  ITERATIONS
 ALL LAKES CONVERGED AFTER   2  ITERATIONS
 ALL LAKES CONVERGED AFTER   2  ITERATIONS
 ALL LAKES CONVERGED AFTER   2  ITERATIONS
 ALL LAKES CONVERGED AFTER   2  ITERATIONS
 ALL LAKES CONVERGED AFTER   2  ITERATIONS
 ALL LAKES CONVERGED AFTER   2  ITERATIONS
 ALL LAKES CONVERGED AFTER   2  ITERATIONS
 ALL LAKES CONVERGED AFTER   2  ITERATIONS
 ALL LAKES CONVERGED AFTER   2  ITERATIONS
 ALL LAKES CONVERGED AFTER   2  ITERATIONS
 ALL LAKES CONVERGED AFTER   2  ITERATIONS
 ALL LAKES CONVERGED AFTER   2  ITERATIONS
 ALL LAKES CONVERGED AFTER   2  ITERATIONS
 ALL LAKES CONVERGED AFTER   2  ITERATIONS
 ALL LAKES CONVERGED AFTER   2  ITERATIONS
 ALL LAKES CONVERGED AFTER   2  ITERATIONS
 ALL LAKES CONVERGED AFTER   2  ITERATIONS
 ALL LAKES CONVERGED AFTER   2  ITERATIONS
 ALL LAKES CONVERGED AFTER   2  ITERATIONS
 ALL LAKES CONVERGED AFTER   2  ITERATIONS
 ALL LAKES CONVERGED AFTER   2  ITERATIONS
 ALL LAKES CONVERGED AFTER   2  ITERATIONS
 ALL LAKES CONVERGED AFTER   2  ITERATIONS
 ALL LAKES CONVERGED AFTER   2  ITERATIONS
 ALL LAKES CONVERGED AFTER   2  ITERATIONS
 ALL LAKES CONVERGED AFTER   2  ITERATIONS
 ALL LAKES CONVERGED AFTER   2  ITERATIONS
 ALL LAKES CONVERGED AFTER   2  ITERATIONS
 ALL LAKES CONVERGED AFTER   2  ITERATIONS
 ALL LAKES CONVERGED AFTER   2  ITERATIONS
 ALL LAKES CONVERGED AFTER   2  ITERATIONS
 ALL LAKES CONVERGED AFTER   2  ITERATIONS
 ALL LAKES CONVERGED AFTER   2  ITERATIONS
 ALL LAKES CONVERGED AFTER   2  ITERATIONS
 ALL LAKES CONVERGED AFTER   2  ITERATIONS
 ALL LAKES CONVERGED AFTER   2  ITERATIONS
 ALL LAKES CONVERGED AFTER   2  ITERATIONS
 ALL LAKES CONVERGED AFTER   2  ITERATIONS
 ALL LAKES CONVERGED AFTER   2  ITERATIONS
 ALL LAKES CONVERGED AFTER   2  ITERATIONS
 ALL LAKES CONVERGED AFTER   2  ITERATIONS
 ALL LAKES CONVERGED AFTER   2  ITERATIONS
 ALL LAKES CONVERGED AFTER   2  ITERATIONS
 ALL LAKES CONVERGED AFTER   2  ITERATIONS
 ALL LAKES CONVERGED AFTER   2  ITERATIONS
 ALL LAKES CONVERGED AFTER   2  ITERATIONS
 ALL LAKES CONVERGED AFTER   2  ITERATIONS
 ALL LAKES CONVERGED AFTER   2  ITERATIONS
 ALL LAKES CONVERGED AFTER   2  ITERATIONS
 ALL LAKES CONVERGED AFTER   2  ITERATIONS
 ALL LAKES CONVERGED AFTER   2  ITERATIONS
 ALL LAKES CONVERGED AFTER   2  ITERATIONS
 ALL LAKES CONVERGED AFTER   2  ITERATIONS
 ALL LAKES CONVERGED AFTER   2  ITERATIONS
 ALL LAKES CONVERGED AFTER   2  ITERATIONS
 ALL LAKES CONVERGED AFTER   2  ITERATIONS
 ALL LAKES CONVERGED AFTER   2  ITERATIONS
 ALL LAKES CONVERGED AFTER   2  ITERATIONS
 ALL LAKES CONVERGED AFTER   2  ITERATIONS
 ALL LAKES CONVERGED AFTER   2  ITERATIONS
 ALL LAKES CONVERGED AFTER   2  ITERATIONS
 ALL LAKES CONVERGED AFTER   2  ITERATIONS
 ALL LAKES CONVERGED AFTER   2  ITERATIONS
 ALL LAKES CONVERGED AFTER   2  ITERATIONS
 ALL LAKES CONVERGED AFTER   2  ITERATIONS
 ALL LAKES CONVERGED AFTER   2  ITERATIONS
 ALL LAKES CONVERGED AFTER   2  ITERATIONS
 ALL LAKES CONVERGED AFTER   2  ITERATIONS
 ALL LAKES CONVERGED AFTER   2  ITERATIONS
 ALL LAKES CONVERGED AFTER   2  ITERATIONS
 ALL LAKES CONVERGED AFTER   2  ITERATIONS
 ALL LAKES CONVERGED AFTER   2  ITERATIONS
 ALL LAKES CONVERGED AFTER   2  ITERATIONS
 ALL LAKES CONVERGED AFTER   2  ITERATIONS
 ALL LAKES CONVERGED AFTER   2  ITERATIONS
 ALL LAKES CONVERGED AFTER   2  ITERATIONS
 ALL LAKES CONVERGED AFTER   2  ITERATIONS
 ALL LAKES CONVERGED AFTER   2  ITERATIONS
 ALL LAKES CONVERGED AFTER   2  ITERATIONS
 ALL LAKES CONVERGED AFTER   2  ITERATIONS
 ALL LAKES CONVERGED AFTER   2  ITERATIONS
 ALL LAKES CONVERGED AFTER   2  ITERATIONS
 ALL LAKES CONVERGED AFTER   2  ITERATIONS
 ALL LAKES CONVERGED AFTER   2  ITERATIONS
 ALL LAKES CONVERGED AFTER   2  ITERATIONS
 ALL LAKES CONVERGED AFTER   2  ITERATIONS
 ALL LAKES CONVERGED AFTER   2  ITERATIONS
 ALL LAKES CONVERGED AFTER   2  ITERATIONS
 ALL LAKES CONVERGED AFTER   2  ITERATIONS
 ALL LAKES CONVERGED AFTER   2  ITERATIONS
 ALL LAKES CONVERGED AFTER   2  ITERATIONS
 ALL LAKES CONVERGED AFTER   2  ITERATIONS
 ALL LAKES CONVERGED AFTER   2  ITERATIONS
 ALL LAKES CONVERGED AFTER   2  ITERATIONS
 ALL LAKES CONVERGED AFTER   2  ITERATIONS
 ALL LAKES CONVERGED AFTER   2  ITERATIONS
 ALL LAKES CONVERGED AFTER   2  ITERATIONS
 ALL LAKES CONVERGED AFTER   2  ITERATIONS
 ALL LAKES CONVERGED AFTER   2  ITERATIONS
 ALL LAKES CONVERGED AFTER   2  ITERATIONS
 ALL LAKES CONVERGED AFTER   2  ITERATIONS
 ALL LAKES CONVERGED AFTER   2  ITERATIONS
 ALL LAKES CONVERGED AFTER   2  ITERATIONS
 ALL LAKES CONVERGED AFTER   2  ITERATIONS
 ALL LAKES CONVERGED AFTER   2  ITERATIONS
 ALL LAKES CONVERGED AFTER   2  ITERATIONS
 ALL LAKES CONVERGED AFTER   2  ITERATIONS
 ALL LAKES CONVERGED AFTER   2  ITERATIONS
 ALL LAKES CONVERGED AFTER   2  ITERATIONS
 ALL LAKES CONVERGED AFTER   2  ITERATIONS
 ALL LAKES CONVERGED AFTER   2  ITERATIONS
 ALL LAKES CONVERGED AFTER   2  ITERATIONS
 ALL LAKES CONVERGED AFTER   2  ITERATIONS
 ALL LAKES CONVERGED AFTER   2  ITERATIONS
 ALL LAKES CONVERGED AFTER   2  ITERATIONS
 ALL LAKES CONVERGED AFTER   2  ITERATIONS
 ALL LAKES CONVERGED AFTER   2  ITERATIONS
 ALL LAKES CONVERGED AFTER   2  ITERATIONS
 ALL LAKES CONVERGED AFTER   2  ITERATIONS
 ALL LAKES CONVERGED AFTER   2  ITERATIONS
 ALL LAKES CONVERGED AFTER   2  ITERATIONS
 ALL LAKES CONVERGED AFTER   2  ITERATIONS
 ALL LAKES CONVERGED AFTER   2  ITERATIONS
 ALL LAKES CONVERGED AFTER   2  ITERATIONS
 ALL LAKES CONVERGED AFTER   2  ITERATIONS
 ALL LAKES CONVERGED AFTER   2  ITERATIONS
 ALL LAKES CONVERGED AFTER   2  ITERATIONS
 ALL LAKES CONVERGED AFTER   2  ITERATIONS
 ALL LAKES CONVERGED AFTER   2  ITERATIONS
 ALL LAKES CONVERGED AFTER   2  ITERATIONS
 ALL LAKES CONVERGED AFTER   2  ITERATIONS
 ALL LAKES CONVERGED AFTER   2  ITERATIONS
 ALL LAKES CONVERGED AFTER   2  ITERATIONS
 ALL LAKES CONVERGED AFTER   2  ITERATIONS
 ALL LAKES CONVERGED AFTER   2  ITERATIONS
 ALL LAKES CONVERGED AFTER   2  ITERATIONS
 ALL LAKES CONVERGED AFTER   2  ITERATIONS
 ALL LAKES CONVERGED AFTER   2  ITERATIONS
 ALL LAKES CONVERGED AFTER   2  ITERATIONS
 ALL LAKES CONVERGED AFTER   2  ITERATIONS
 ALL LAKES CONVERGED AFTER   2  ITERATIONS
 ALL LAKES CONVERGED AFTER   2  ITERATIONS
 ALL LAKES CONVERGED AFTER   2  ITERATIONS
 ALL LAKES CONVERGED AFTER   2  ITERATIONS
 ALL LAKES CONVERGED AFTER   2  ITERATIONS
 ALL LAKES CONVERGED AFTER   2  ITERATIONS
 ALL LAKES CONVERGED AFTER   2  ITERATIONS
 ALL LAKES CONVERGED AFTER   2  ITERATIONS
 ALL LAKES CONVERGED AFTER   2  ITERATIONS
 ALL LAKES CONVERGED AFTER   2  ITERATIONS
 ALL LAKES CONVERGED AFTER   2  ITERATIONS
 ALL LAKES CONVERGED AFTER   2  ITERATIONS
 ALL LAKES CONVERGED AFTER   2  ITERATIONS
 ALL LAKES CONVERGED AFTER   2  ITERATIONS
 ALL LAKES CONVERGED AFTER   2  ITERATIONS
 ALL LAKES CONVERGED AFTER   2  ITERATIONS
 ALL LAKES CONVERGED AFTER   2  ITERATIONS
 ALL LAKES CONVERGED AFTER   2  ITERATIONS
 ALL LAKES CONVERGED AFTER   2  ITERATIONS
 ALL LAKES CONVERGED AFTER   2  ITERATIONS
 ALL LAKES CONVERGED AFTER   2  ITERATIONS
 ALL LAKES CONVERGED AFTER   2  ITERATIONS
 ALL LAKES CONVERGED AFTER   2  ITERATIONS
 ALL LAKES CONVERGED AFTER   2  ITERATIONS
 ALL LAKES CONVERGED AFTER   2  ITERATIONS
 ALL LAKES CONVERGED AFTER   2  ITERATIONS
 ALL LAKES CONVERGED AFTER   2  ITERATIONS
 ALL LAKES CONVERGED AFTER   2  ITERATIONS
 ALL LAKES CONVERGED AFTER   2  ITERATIONS
 ALL LAKES CONVERGED AFTER   2  ITERATIONS
 ALL LAKES CONVERGED AFTER   2  ITERATIONS
 ALL LAKES CONVERGED AFTER   2  ITERATIONS
 ALL LAKES CONVERGED AFTER   2  ITERATIONS
 ALL LAKES CONVERGED AFTER   2  ITERATIONS
 ALL LAKES CONVERGED AFTER   2  ITERATIONS
 ALL LAKES CONVERGED AFTER   2  ITERATIONS
 ALL LAKES CONVERGED AFTER   2  ITERATIONS
 ALL LAKES CONVERGED AFTER   2  ITERATIONS
 ALL LAKES CONVERGED AFTER   2  ITERATIONS
 ALL LAKES CONVERGED AFTER   2  ITERATIONS
 ALL LAKES CONVERGED AFTER   2  ITERATIONS
 ALL LAKES CONVERGED AFTER   2  ITERATIONS
 ALL LAKES CONVERGED AFTER   2  ITERATIONS
 ALL LAKES CONVERGED AFTER   2  ITERATIONS
 ALL LAKES CONVERGED AFTER   2  ITERATIONS
 ALL LAKES CONVERGED AFTER   2  ITERATIONS
 ALL LAKES CONVERGED AFTER   2  ITERATIONS
 ALL LAKES CONVERGED AFTER   2  ITERATIONS
 ALL LAKES CONVERGED AFTER   2  ITERATIONS
 ALL LAKES CONVERGED AFTER   2  ITERATIONS
 ALL LAKES CONVERGED AFTER   2  ITERATIONS
 ALL LAKES CONVERGED AFTER   2  ITERATIONS
 ALL LAKES CONVERGED AFTER   2  ITERATIONS
 ALL LAKES CONVERGED AFTER   2  ITERATIONS
 ALL LAKES CONVERGED AFTER   2  ITERATIONS
 ALL LAKES CONVERGED AFTER   2  ITERATIONS
 ALL LAKES CONVERGED AFTER   2  ITERATIONS
 ALL LAKES CONVERGED AFTER   2  ITERATIONS
 ALL LAKES CONVERGED AFTER   2  ITERATIONS
 ALL LAKES CONVERGED AFTER   2  ITERATIONS
 ALL LAKES CONVERGED AFTER   2  ITERATIONS
 ALL LAKES CONVERGED AFTER   2  ITERATIONS
 ALL LAKES CONVERGED AFTER   2  ITERATIONS
 ALL LAKES CONVERGED AFTER   2  ITERATIONS
 ALL LAKES CONVERGED AFTER   2  ITERATIONS
 ALL LAKES CONVERGED AFTER   2  ITERATIONS
 ALL LAKES CONVERGED AFTER   2  ITERATIONS
 ALL LAKES CONVERGED AFTER   2  ITERATIONS
 ALL LAKES CONVERGED AFTER   2  ITERATIONS
 ALL LAKES CONVERGED AFTER   2  ITERATIONS
 ALL LAKES CONVERGED AFTER   2  ITERATIONS
 ALL LAKES CONVERGED AFTER   2  ITERATIONS
 ALL LAKES CONVERGED AFTER   2  ITERATIONS
 ALL LAKES CONVERGED AFTER   2  ITERATIONS
 ALL LAKES CONVERGED AFTER   2  ITERATIONS
 ALL LAKES CONVERGED AFTER   2  ITERATIONS
 ALL LAKES CONVERGED AFTER   2  ITERATIONS
 ALL LAKES CONVERGED AFTER   2  ITERATIONS
 ALL LAKES CONVERGED AFTER   2  ITERATIONS
 ALL LAKES CONVERGED AFTER   1  ITERATIONS
 ALL LAKES CONVERGED AFTER   2  ITERATIONS
 ALL LAKES CONVERGED AFTER   2  ITERATIONS
 ALL LAKES CONVERGED AFTER   2  ITERATIONS
 ALL LAKES CONVERGED AFTER   2  ITERATIONS
 ALL LAKES CONVERGED AFTER   2  ITERATIONS
 ALL LAKES CONVERGED AFTER   2  ITERATIONS
 ALL LAKES CONVERGED AFTER   2  ITERATIONS
 ALL LAKES CONVERGED AFTER   2  ITERATIONS
 ALL LAKES CONVERGED AFTER   2  ITERATIONS
 ALL LAKES CONVERGED AFTER   1  ITERATIONS
 ALL LAKES CONVERGED AFTER   2  ITERATIONS
 ALL LAKES CONVERGED AFTER   2  ITERATIONS
 ALL LAKES CONVERGED AFTER   2  ITERATIONS
 ALL LAKES CONVERGED AFTER   1  ITERATIONS
 ALL LAKES CONVERGED AFTER   2  ITERATIONS
 ALL LAKES CONVERGED AFTER   2  ITERATIONS
 ALL LAKES CONVERGED AFTER   2  ITERATIONS
 ALL LAKES CONVERGED AFTER   1  ITERATIONS
 ALL LAKES CONVERGED AFTER   2  ITERATIONS
 ALL LAKES CONVERGED AFTER   1  ITERATIONS
 ALL LAKES CONVERGED AFTER   2  ITERATIONS
 ALL LAKES CONVERGED AFTER   2  ITERATIONS
 ALL LAKES CONVERGED AFTER   2  ITERATIONS
 ALL LAKES CONVERGED AFTER   1  ITERATIONS
 ALL LAKES CONVERGED AFTER   2  ITERATIONS
 ALL LAKES CONVERGED AFTER   2  ITERATIONS
 ALL LAKES CONVERGED AFTER   2  ITERATIONS
 ALL LAKES CONVERGED AFTER   1  ITERATIONS
 ALL LAKES CONVERGED AFTER   2  ITERATIONS
 ALL LAKES CONVERGED AFTER   1  ITERATIONS
 ALL LAKES CONVERGED AFTER   2  ITERATIONS
 ALL LAKES CONVERGED AFTER   2  ITERATIONS
 ALL LAKES CONVERGED AFTER   2  ITERATIONS
 ALL LAKES CONVERGED AFTER   1  ITERATIONS
 ALL LAKES CONVERGED AFTER   2  ITERATIONS
 ALL LAKES CONVERGED AFTER   2  ITERATIONS
 ALL LAKES CONVERGED AFTER   2  ITERATIONS
 ALL LAKES CONVERGED AFTER   1  ITERATIONS
 ALL LAKES CONVERGED AFTER   2  ITERATIONS
 ALL LAKES CONVERGED AFTER   1  ITERATIONS
 ALL LAKES CONVERGED AFTER   2  ITERATIONS
 ALL LAKES CONVERGED AFTER   1  ITERATIONS
 ALL LAKES CONVERGED AFTER   2  ITERATIONS
 ALL LAKES CONVERGED AFTER   1  ITERATIONS
 ALL LAKES CONVERGED AFTER   2  ITERATIONS
 ALL LAKES CONVERGED AFTER   1  ITERATIONS
 ALL LAKES CONVERGED AFTER   1  ITERATIONS
 ALL LAKES CONVERGED AFTER   1  ITERATIONS
 ALL LAKES CONVERGED AFTER   1  ITERATIONS
 ALL LAKES CONVERGED AFTER   1  ITERATIONS
 ALL LAKES CONVERGED AFTER   1  ITERATIONS
 ALL LAKES CONVERGED AFTER   1  ITERATIONS
 ALL LAKES CONVERGED AFTER   1  ITERATIONS
 ALL LAKES CONVERGED AFTER   1  ITERATIONS
 ALL LAKES CONVERGED AFTER   1  ITERATIONS
 ALL LAKES CONVERGED AFTER   1  ITERATIONS
 ALL LAKES CONVERGED AFTER   1  ITERATIONS
 ALL LAKES CONVERGED AFTER   1  ITERATIONS
 ALL LAKES CONVERGED AFTER   1  ITERATIONS
 ALL LAKES CONVERGED AFTER   1  ITERATIONS
 ALL LAKES CONVERGED AFTER   1  ITERATIONS
 ALL LAKES CONVERGED AFTER   1  ITERATIONS
 ALL LAKES CONVERGED AFTER   1  ITERATIONS
 ALL LAKES CONVERGED AFTER   1  ITERATIONS
 ALL LAKES CONVERGED AFTER   1  ITERATIONS
 ALL LAKES CONVERGED AFTER   1  ITERATIONS
 ALL LAKES CONVERGED AFTER   1  ITERATIONS
 ALL LAKES CONVERGED AFTER   1  ITERATIONS
 ALL LAKES CONVERGED AFTER   1  ITERATIONS
 ALL LAKES CONVERGED AFTER   1  ITERATIONS
 ALL LAKES CONVERGED AFTER   1  ITERATIONS
 ALL LAKES CONVERGED AFTER   1  ITERATIONS
 ALL LAKES CONVERGED AFTER   1  ITERATIONS
 ALL LAKES CONVERGED AFTER   1  ITERATIONS
 ALL LAKES CONVERGED AFTER   1  ITERATIONS
 ALL LAKES CONVERGED AFTER   1  ITERATIONS
 ALL LAKES CONVERGED AFTER   1  ITERATIONS
 ALL LAKES CONVERGED AFTER   1  ITERATIONS
 ALL LAKES CONVERGED AFTER   1  ITERATIONS
 ALL LAKES CONVERGED AFTER   1  ITERATIONS
 ALL LAKES CONVERGED AFTER   1  ITERATIONS
 ALL LAKES CONVERGED AFTER   1  ITERATIONS
 ALL LAKES CONVERGED AFTER   1  ITERATIONS
 ALL LAKES CONVERGED AFTER   1  ITERATIONS
 ALL LAKES CONVERGED AFTER   1  ITERATIONS
 ALL LAKES CONVERGED AFTER   1  ITERATIONS
 ALL LAKES CONVERGED AFTER   1  ITERATIONS
 ALL LAKES CONVERGED AFTER   1  ITERATIONS
 ALL LAKES CONVERGED AFTER   1  ITERATIONS
 ALL LAKES CONVERGED AFTER   1  ITERATIONS
 ALL LAKES CONVERGED AFTER   1  ITERATIONS
 ALL LAKES CONVERGED AFTER   1  ITERATIONS
 ALL LAKES CONVERGED AFTER   1  ITERATIONS
 ALL LAKES CONVERGED AFTER   1  ITERATIONS
 ALL LAKES CONVERGED AFTER   1  ITERATIONS
 ALL LAKES CONVERGED AFTER   1  ITERATIONS
 ALL LAKES CONVERGED AFTER   1  ITERATIONS
 ALL LAKES CONVERGED AFTER   1  ITERATIONS
 ALL LAKES CONVERGED AFTER   1  ITERATIONS
 ALL LAKES CONVERGED AFTER   1  ITERATIONS
 ALL LAKES CONVERGED AFTER   1  ITERATIONS
 ALL LAKES CONVERGED AFTER   1  ITERATIONS
 ALL LAKES CONVERGED AFTER   1  ITERATIONS
 ALL LAKES CONVERGED AFTER   1  ITERATIONS
 ALL LAKES CONVERGED AFTER   1  ITERATIONS
 ALL LAKES CONVERGED AFTER   1  ITERATIONS
 ALL LAKES CONVERGED AFTER   1  ITERATIONS
 ALL LAKES CONVERGED AFTER   1  ITERATIONS
 ALL LAKES CONVERGED AFTER   1  ITERATIONS
 ALL LAKES CONVERGED AFTER   1  ITERATIONS
 ALL LAKES CONVERGED AFTER   1  ITERATIONS
 ALL LAKES CONVERGED AFTER   1  ITERATIONS
 ALL LAKES CONVERGED AFTER   1  ITERATIONS
 ALL LAKES CONVERGED AFTER   1  ITERATIONS
 ALL LAKES CONVERGED AFTER   1  ITERATIONS
 ALL LAKES CONVERGED AFTER   1  ITERATIONS
 ALL LAKES CONVERGED AFTER   1  ITERATIONS
 ALL LAKES CONVERGED AFTER   1  ITERATIONS
 ALL LAKES CONVERGED AFTER   1  ITERATIONS
 ALL LAKES CONVERGED AFTER   1  ITERATIONS
 ALL LAKES CONVERGED AFTER   1  ITERATIONS
 ALL LAKES CONVERGED AFTER   1  ITERATIONS
 ALL LAKES CONVERGED AFTER   1  ITERATIONS
 ALL LAKES CONVERGED AFTER   1  ITERATIONS
 ALL LAKES CONVERGED AFTER   1  ITERATIONS
 ALL LAKES CONVERGED AFTER   1  ITERATIONS
 ALL LAKES CONVERGED AFTER   1  ITERATIONS
 ALL LAKES CONVERGED AFTER   1  ITERATIONS
 ALL LAKES CONVERGED AFTER   1  ITERATIONS
 ALL LAKES CONVERGED AFTER   1  ITERATIONS
 ALL LAKES CONVERGED AFTER   1  ITERATIONS
 ALL LAKES CONVERGED AFTER   1  ITERATIONS
 ALL LAKES CONVERGED AFTER   1  ITERATIONS
 ALL LAKES CONVERGED AFTER   1  ITERATIONS
 ALL LAKES CONVERGED AFTER   1  ITERATIONS
 ALL LAKES CONVERGED AFTER   1  ITERATIONS
[...]
     0.6120        0.4385        0.5571        0.4352        0.6211    
  (  2,  7,  7) (  5,  9,  9) (  5, 10,  8) (  3,  8, 10) (  3, 10,  8)
     0.4165        0.4160        0.3960        0.5804        0.4000    
  (  2,  7,  7) (  5, 10,  8) (  3,  8, 10) (  3, 10,  8) (  2,  8, 11)
     0.5186        0.3713        0.4715        0.3680        0.5251    
  (  2,  7,  7) (  5,  9,  9) (  5, 10,  8) (  3,  8, 10) (  3, 10,  8)
     0.3516        0.3513        0.3342        0.4898        0.3374    
  (  2,  7,  7) (  5, 10,  8) (  3,  8, 10) (  3, 10,  8) (  2,  8, 11)
     0.4374        0.3130        0.3973        0.3098        0.4421    
  (  2,  7,  7) (  5,  9,  9) (  5, 10,  8) (  3,  8, 10) (  3, 10,  8)
     0.2956        0.2955        0.2809        0.4116        0.2836    
  (  2,  7,  7) (  5, 10,  8) (  3,  8, 10) (  3, 10,  8) (  2,  8, 11)
     0.3675        0.2629        0.3335        0.2600        0.3710    
  (  2,  7,  7) (  5,  9,  9) (  5, 10,  8) (  3,  8, 10) (  3, 10,  8)
     0.2478        0.2477        0.2353        0.3449        0.2376    
  (  2,  7,  7) (  5, 10,  8) (  3,  8, 10) (  3, 10,  8) (  2,  8, 11)
     0.3078        0.2201        0.2792        0.2175        0.3103    
  (  2,  7,  7) (  5,  9,  9) (  5, 10,  8) (  3,  8, 10) (  3, 10,  8)
     0.2071        0.2070        0.1966        0.2881        0.1985    
  (  2,  7,  7) (  5, 10,  8) (  3,  8, 10) (  3, 10,  8) (  2,  8, 11)
     0.2571        0.1838        0.2331        0.1815        0.2589    
  (  2,  7,  7) (  5,  9,  9) (  5, 10,  8) (  3,  8, 10) (  3, 10,  8)
     0.1726        0.1726        0.1639        0.2402        0.1654    
  (  2,  7,  7) (  5, 10,  8) (  3,  8, 10) (  3, 10,  8) (  2,  8, 11)
     0.2143        0.1531        0.1941        0.1511        0.2156    
  (  2,  7,  7) (  5,  9,  9) (  5, 10,  8) (  3,  8, 10) (  3, 10,  8)
     0.1437        0.1437        0.1364        0.1998        0.1376    
  (  2,  7,  7) (  5, 10,  8) (  3,  8, 10) (  3, 10,  8) (  2,  8, 11)
     0.1783        0.1273        0.1614        0.1256        0.1792    
  (  2,  7,  7) (  5,  9,  9) (  5, 10,  8) (  3,  8, 10) (  3, 10,  8)
     0.1194        0.1194        0.1133        0.1660        0.1143    
  (  2,  7,  7) (  5, 10,  8) (  3,  8, 10) (  3, 10,  8) (  2,  8, 11)
     0.1481        0.1057        0.1340        0.1043        0.1488    
  (  2,  7,  7) (  5,  9,  9) (  5, 10,  8) (  3,  8, 10) (  3, 10,  8)
     0.9902E-01    0.9905E-01    0.9398E-01    0.1377        0.9481E-01
  (  2,  7,  7) (  5, 10,  8) (  3,  8, 10) (  3, 10,  8) (  2,  8, 11)
     0.1228        0.8770E-01    0.1111        0.8643E-01    0.1233    
  (  2,  7,  7) (  5,  9,  9) (  5, 10,  8) (  3,  8, 10) (  3, 10,  8)
     0.8207E-01    0.8210E-01    0.7787E-01    0.1141        0.7856E-01
  (  2,  7,  7) (  5, 10,  8) (  3,  8, 10) (  3, 10,  8) (  2,  8, 11)
     0.1018        0.7266E-01    0.9206E-01    0.7158E-01    0.1021    
  (  2,  7,  7) (  5,  9,  9) (  5, 10,  8) (  3,  8, 10) (  3, 10,  8)
     0.6795E-01    0.6798E-01    0.6447E-01    0.9446E-01    0.6504E-01
  (  2,  7,  7) (  5, 10,  8) (  3,  8, 10) (  3, 10,  8) (  2,  8, 11)
     0.8424E-01    0.6013E-01    0.7620E-01    0.5923E-01    0.8452E-01
  (  2,  7,  7) (  5,  9,  9) (  5, 10,  8) (  3,  8, 10) (  3, 10,  8)
     0.5622E-01    0.5624E-01    0.5334E-01    0.7814E-01    0.5382E-01
  (  2,  7,  7) (  5, 10,  8) (  3,  8, 10) (  3, 10,  8) (  2,  8, 11)
     0.6968E-01    0.4975E-01    0.6303E-01    0.4899E-01    0.6991E-01
  (  2,  7,  7) (  5,  9,  9) (  5, 10,  8) (  3,  8, 10) (  3, 10,  8)
     0.4648E-01    0.4650E-01    0.4408E-01    0.6461E-01    0.4448E-01
  (  2,  7,  7) (  5, 10,  8) (  3,  8, 10) (  3, 10,  8) (  2,  8, 11)
     0.5760E-01    0.4112E-01    0.5208E-01    0.4049E-01    0.5778E-01
  (  2,  7,  7) (  5,  9,  9) (  5, 10,  8) (  3,  8, 10) (  3, 10,  8)
     0.3842E-01    0.3843E-01    0.3643E-01    0.5337E-01    0.3674E-01
  (  2,  7,  7) (  5, 10,  8) (  3,  8, 10) (  3, 10,  8) (  2,  8, 11)
     0.4760E-01    0.3397E-01    0.4304E-01    0.3346E-01    0.4774E-01
  (  2,  7,  7) (  5,  9,  9) (  5, 10,  8) (  3,  8, 10) (  3, 10,  8)
     0.3172E-01    0.3175E-01    0.3010E-01    0.4409E-01    0.3035E-01
  (  2,  7,  7) (  5, 10,  8) (  3,  8, 10) (  3, 10,  8) (  2,  8, 11)
     0.3931E-01    0.2806E-01    0.3553E-01    0.2763E-01    0.3943E-01
  (  2,  7,  7) (  5,  9,  9) (  5, 10,  8) (  3,  8, 10) (  3, 10,  8)
     0.2619E-01    0.2622E-01    0.2486E-01    0.3640E-01    0.2506E-01
  (  2,  7,  7) (  5, 10,  8) (  3,  8, 10) (  3, 10,  8) (  2,  8, 11)
     0.3247E-01    0.2317E-01    0.2934E-01    0.2281E-01    0.3255E-01
  (  2,  7,  7) (  5,  9,  9) (  5, 10,  8) (  3,  8, 10) (  3, 10,  8)
     0.2162E-01    0.2163E-01    0.2051E-01    0.3005E-01    0.2068E-01
  (  2,  7,  7) (  5, 10,  8) (  3,  8, 10) (  3, 10,  8) (  2,  8, 11)
     0.2679E-01    0.1912E-01    0.2422E-01    0.1882E-01    0.2685E-01
  (  2,  7,  7) (  5,  9,  9) (  5, 10,  8) (  3,  8, 10) (  3, 10,  8)
     0.1784E-01    0.1787E-01    0.1693E-01    0.2479E-01    0.1708E-01
  (  2,  7,  7) (  5, 10,  8) (  3,  8, 10) (  3, 10,  8) (  2,  8, 11)
     0.2211E-01    0.1578E-01    0.1998E-01    0.1553E-01    0.2217E-01
  (  2,  7,  7) (  5,  9,  9) (  5, 10,  8) (  3,  8, 10) (  3, 10,  8)
     0.1472E-01    0.1474E-01    0.1398E-01    0.2046E-01    0.1408E-01
  (  2,  7,  7) (  5, 10,  8) (  3,  8, 10) (  3, 10,  8) (  2,  8, 11)
     0.1824E-01    0.1302E-01    0.1649E-01    0.1281E-01    0.1828E-01
  (  2,  7,  7) (  5,  9,  9) (  5, 10,  8) (  3,  8, 10) (  3, 10,  8)
     0.1215E-01    0.1215E-01    0.1151E-01    0.1687E-01    0.1163E-01
  (  2,  7,  7) (  5, 10,  8) (  3,  8, 10) (  3, 10,  8) (  2,  8, 11)
     0.1505E-01    0.1073E-01    0.1361E-01    0.1056E-01    0.1508E-01
  (  2,  7,  7) (  5,  9,  9) (  5, 10,  8) (  3,  8, 10) (  3, 10,  8)
     0.1002E-01    0.1003E-01    0.9500E-02    0.1392E-01    0.9580E-02
  (  2,  7,  7) (  5, 10,  8) (  3,  8, 10) (  3, 10,  8) (  2,  8, 11)
     0.1241E-01    0.8855E-02    0.1122E-01    0.8723E-02    0.1244E-01
  (  2,  7,  7) (  5,  9,  9) (  5, 10,  8) (  3,  8, 10) (  3, 10,  8)
     0.8268E-02    0.8273E-02    0.7842E-02    0.1148E-01    0.7907E-02
  (  2,  7,  7) (  5, 10,  8) (  3,  8, 10) (  3, 10,  8) (  2,  8, 11)
     0.1023E-01    0.7304E-02    0.9258E-02    0.7180E-02    0.1025E-01
  (  2,  7,  7) (  5,  9,  9) (  5, 10,  8) (  3,  8, 10) (  3, 10,  8)
     0.6809E-02    0.6818E-02    0.6459E-02    0.9461E-02    0.6513E-02
  (  2,  7,  7) (  5, 10,  8) (  3,  8, 10) (  3, 10,  8) (  2,  8, 11)
     0.8447E-02    0.6021E-02    0.7635E-02    0.5929E-02    0.8459E-02
  (  2,  7,  7) (  5,  9,  9) (  5, 10,  8) (  3,  8, 10) (  3, 10,  8)
     0.5608E-02    0.5618E-02    0.5330E-02    0.7813E-02    0.5378E-02
  (  2,  7,  7) (  5, 10,  8) (  3,  8, 10) (  3, 10,  8) (  2,  8, 11)
     0.6964E-02    0.4969E-02    0.6302E-02    0.4880E-02    0.6971E-02
  (  2,  7,  7) (  5,  9,  9) (  5, 10,  8) (  3,  8, 10) (  3, 10,  8)
     0.4635E-02    0.4631E-02    0.4394E-02    0.6431E-02    0.4431E-02
  (  2,  7,  7) (  5, 10,  8) (  3,  8, 10) (  3, 10,  8) (  2,  8, 11)
     0.5735E-02    0.4098E-02    0.5186E-02    0.4033E-02    0.5752E-02
  (  2,  7,  7) (  5,  9,  9) (  5, 10,  8) (  3,  8, 10) (  3, 10,  8)
     0.3819E-02    0.3820E-02    0.3621E-02    0.5307E-02    0.3655E-02
  (  2,  7,  7) (  5, 10,  8) (  3,  8, 10) (  3, 10,  8) (  2,  8, 11)
     0.4734E-02    0.3376E-02    0.4275E-02    0.3318E-02    0.4745E-02
  (  2,  7,  7) (  5,  9,  9) (  5, 10,  8) (  3,  8, 10) (  3, 10,  8)
     0.3147E-02    0.3153E-02    0.2991E-02    0.4373E-02    0.3018E-02
  (  2,  7,  7) (  5, 10,  8) (  3,  8, 10) (  3, 10,  8) (  2,  8, 11)
     0.3911E-02    0.2792E-02    0.3524E-02    0.2743E-02    0.3915E-02
  (  2,  7,  7) (  5,  9,  9) (  5, 10,  8) (  3,  8, 10) (  3, 10,  8)
     0.2595E-02    0.2598E-02    0.2461E-02    0.3611E-02    0.2490E-02
  (  2,  7,  7) (  5, 10,  8) (  3,  8, 10) (  3, 10,  8) (  2,  8, 11)
     0.3213E-02    0.2293E-02    0.2918E-02    0.2250E-02    0.3216E-02
  (  2,  7,  7) (  5,  9,  9) (  5, 10,  8) (  2,  8, 11) (  3, 10,  8)
     0.2145E-02    0.2143E-02    0.2034E-02    0.2982E-02    0.2052E-02
  (  2,  7,  7) (  5, 10,  8) (  3,  8, 10) (  3, 10,  8) (  2,  8, 11)
     0.2645E-02    0.1899E-02    0.2388E-02    0.1865E-02    0.2656E-02
  (  2,  7,  7) (  5,  9,  9) (  5, 10,  8) (  3,  8, 10) (  3, 10,  8)
     0.1770E-02    0.1766E-02    0.1678E-02    0.2458E-02    0.1693E-02
  (  2,  7,  7) (  5, 10,  8) (  3,  8, 10) (  3, 10,  8) (  2,  8, 11)
     0.2183E-02    0.1560E-02    0.1983E-02    0.1543E-02    0.2187E-02
  (  2,  7,  7) (  5,  9,  9) (  5, 10,  8) (  3,  8, 10) (  3, 10,  8)
     0.1458E-02    0.1455E-02    0.1383E-02    0.2030E-02    0.1385E-02
  (  2,  7,  7) (  5, 10,  8) (  3,  8, 10) (  4, 10,  8) (  3,  8, 10)
     0.1795E-02    0.1294E-02    0.1617E-02    0.1264E-02    0.1808E-02
  (  2,  7,  7) (  5,  9,  9) (  5, 10,  8) (  2,  8, 11) (  3, 10,  8)
     0.1196E-02    0.1199E-02    0.1139E-02    0.1667E-02    0.1145E-02
  (  2,  7,  7) (  5, 10,  8) (  3,  8, 10) (  3, 10,  8) (  2,  8, 11)
     0.1492E-02    0.1062E-02    0.1348E-02    0.1049E-02    0.1488E-02
  (  2,  7,  7) (  5,  9,  9) (  5, 10,  8) (  3,  8, 10) (  3, 10,  8)
     0.9919E-03    0.9787E-03    0.9356E-03    0.1372E-02    0.9362E-03
  (  2,  7,  7) (  5, 10,  8) (  3,  8, 10) (  3, 10,  8) (  2,  8, 11)
     0.1219E-02    0.8611E-03    0.1091E-02    0.8672E-03    0.1229E-02
  (  2,  7,  7) (  5,  9,  9) (  5, 10,  8) (  3,  8, 10) (  3, 10,  8)
     0.8245E-03    0.8119E-03    0.7632E-03    0.1135E-02    0.7825E-03
  (  2,  7,  7) (  5, 10,  8) (  3,  8, 10) (  4, 10,  8) (  3,  8, 10)
     0.1019E-02    0.7130E-03    0.9072E-03    0.7166E-03    0.1008E-02
  (  2,  7,  7) (  5,  9,  9) (  5, 10,  8) (  2,  8, 11) (  3, 10,  8)
     0.6710E-03    0.6671E-03    0.6402E-03    0.9230E-03    0.6372E-03
  (  2,  7,  7) (  5, 10,  8) (  3,  8, 10) (  3, 10,  8) (  2,  8, 11)
     0.8222E-03    0.5938E-03    0.7558E-03    0.5872E-03    0.8391E-03
  (  2,  7,  7) (  5,  9,  9) (  5, 10,  8) (  2,  8, 11) (  3, 10,  8)
     0.5542E-03    0.5649E-03    0.5300E-03    0.7717E-03    0.5276E-03
  (  2,  7,  7) (  5, 10,  8) (  2,  9, 11) (  3, 10,  8) (  2,  8, 11)
     0.6811E-03    0.4882E-03    0.6204E-03    0.4838E-03    0.6892E-03
  (  2,  7,  7) (  5,  9,  9) (  5, 10,  8) (  3,  8, 10) (  3, 10,  8)
     0.4650E-03    0.4467E-03    0.4269E-03    0.6285E-03    0.4479E-03
  (  2,  7,  7) (  5, 10,  8) (  3,  8, 10) (  3, 10,  8) (  2,  8, 11)
     0.5674E-03    0.4034E-03    0.5040E-03    0.3931E-03    0.5690E-03
  (  2,  7,  7) (  5,  9,  9) (  5, 10,  8) (  3,  8, 10) (  3, 10,  8)
     0.3795E-03    0.3877E-03    0.3696E-03    0.5234E-03    0.3612E-03
  (  2,  7,  7) (  5, 10,  8) (  2,  9, 11) (  5, 10,  8) (  3,  8, 10)
     0.4723E-03    0.3300E-03    0.4123E-03    0.3326E-03    0.4689E-03
  (  2,  7,  7) (  5,  9,  9) (  5, 10,  8) (  3,  8, 10) (  3, 10,  8)
     0.3029E-03    0.3200E-03    0.2852E-03    0.4303E-03    0.3010E-03
  (  2,  7,  7) (  5, 10,  8) (  3,  8, 10) (  5, 10,  8) (  3,  8, 10)
     0.3767E-03    0.2751E-03    0.3388E-03    0.2721E-03    0.3892E-03
  (  2,  7,  7) (  4,  9,  9) (  5, 10,  8) (  3,  8, 10) (  3, 10,  8)
     0.2537E-03    0.2454E-03    0.2437E-03    0.3618E-03    0.2408E-03
  (  2,  7,  7) (  5, 10,  8) (  3,  8, 10) (  3, 10,  8) (  3,  8, 10)
     0.3124E-03    0.2229E-03    0.2864E-03    0.2117E-03    0.3197E-03
  (  2,  7,  7) (  5,  9,  9) (  5, 10,  8) (  3,  8, 10) (  3, 10,  8)
     0.2043E-03    0.2113E-03    0.2033E-03    0.2848E-03    0.2006E-03
  (  2,  7,  7) (  5,  9,  7) (  3,  8, 10) (  3, 10,  8) (  3,  8, 10)
     0.2645E-03    0.1910E-03    0.2426E-03    0.1814E-03    0.2595E-03
  (  2,  7,  7) (  5,  9,  9) (  5, 10,  8) (  3,  8, 10) (  3, 10,  8)
     0.1751E-03    0.1772E-03    0.1727E-03    0.2477E-03    0.1605E-03
  (  2,  7,  7) (  5, 10,  8) (  3,  8, 10) (  5, 10,  8) (  3,  8, 10)
     0.2075E-03    0.1582E-03    0.1877E-03    0.1512E-03    0.2095E-03
  (  2,  7,  7) (  4,  9,  9) (  5, 10,  8) (  3,  8, 10) (  3, 10,  8)
     0.1459E-03    0.1548E-03    0.1326E-03    0.2007E-03    0.1304E-03
  (  2,  7,  7) (  5, 10,  8) (  3,  8, 10) (  3, 10,  8) (  3,  8, 10)
     0.1795E-03    0.1277E-03    0.1648E-03    0.1292E-03    0.1813E-03
  (  2,  7,  7) (  5,  9,  9) (  5, 10,  8) (  2,  9, 11) (  2, 11,  9)
     0.1159E-03    0.1116E-03    0.1116E-03    0.1615E-03    0.1204E-03
  (  2,  7,  7) (  5, 10,  8) (  3,  8, 10) (  3, 10,  8) (  3,  8, 10)
     0.1510E-03    0.9660E-04
  (  2,  7,  7) (  5,  9,  9)


 HEAD/DRAWDOWN PRINTOUT FLAG = 1     TOTAL BUDGET PRINTOUT FLAG = 1
 CELL-BY-CELL FLOW TERM FLAG = 1

 OUTPUT FLAGS FOR EACH LAYER:
          HEAD    DRAWDOWN  HEAD  DRAWDOWN
 LAYER  PRINTOUT  PRINTOUT  SAVE    SAVE
 -----------------------------------------
    1       0         0       0       0
    2       0         0       0       0
    3       0         0       0       0
    4       0         0       0       0
    5       1         0       0       0


     0  LAKE CELLS ARE DRY.

 PERIOD     1     TIME STEP     1     TIME STEP LENGTH  1.0000E+00
 PERIOD TIME  1.0000E+00     TOTAL SIMULATION TIME  1.0000E+00


                 HYDROLOGIC BUDGET SUMMARIES FOR SIMULATED LAKES
     (ALL FLUID FLUXES ARE VOLUMES ADDED TO THE LAKE DURING PRESENT TIME STEP)
     -------------------------------------------------------------------------
 LAKE     STAGE     PRECIP       EVAP       RUNOFF
   1   148.2839  7.2500E+04  6.4375E+04  0.0000E+00

            GROUND WATER            SURFACE WATER
 LAKE    INFLOW     OUTFLOW      INFLOW     OUTFLOW
   1  1.6884E+04  2.4955E+04  0.0000E+00  0.0000E+00

         WATER    CONNECTED LAKE   UPDATED     TIME-STEP          STAGE CHANGE
 LAKE     USE         INFLUX        VOLUME    SURFACE AREA   TIME STEP  CUMULATIVE
   1   0.0000E+00   0.0000E+00   2.8052E+08    6.2500E+06   3.8284E+01  3.8284E+01
 --------------------------------------------------------------------------------



            CUMULATIVE HYDROLOGIC BUDGET SUMMARIES FOR SIMULATED LAKES
     (ALL FLUID FLUXES ARE SUMS OF VOLUMES ADDED TO THE LAKE SINCE INITIAL TIME)
     ---------------------------------------------------------------------------
 LAKE       PRECIP       EVAP       RUNOFF
   1     7.2500E+04  6.4375E+04  0.0000E+00

            GROUND WATER            SURFACE WATER
 LAKE    INFLOW     OUTFLOW      INFLOW     OUTFLOW
   1  1.6884E+04  2.4955E+04  0.0000E+00  0.0000E+00

         WATER    CONNECTED LAKE
 LAKE     USE         INFLUX
   1   0.0000E+00   0.0000E+00
 --------------------------------------------------------------------------------

1
              HEAD IN LAYER   5 AT END OF TIME STEP   1 IN STRESS PERIOD    1
  ---------------------------------------------------------------------------

          1      2      3      4      5      6      7      8      9     10
 .........................................................................
   1   160.0  158.9  157.3  155.8  154.2  152.7  151.5  150.8  150.0  149.2
   2   160.0  158.6  156.7  155.1  153.4  151.9  150.7  149.9  149.1  148.4
   3   160.0  158.4  156.3  154.5  152.8  151.1  150.0  149.2  148.4  147.6
   4   160.0  158.3  156.1  154.2  152.4  150.8  149.6  148.8  148.1  147.3
   5   160.0  158.2  155.9  154.0  152.2  150.5  149.4  148.6  147.9  147.2
   6   160.0  158.2  155.9  153.9  152.1  150.3  149.1  148.5  148.0  147.5
   7   160.0  158.2  155.9  153.8  152.0  150.1  148.4  148.3  148.3  148.3
   8   160.0  158.2  155.8  153.8  151.9  150.0  148.3  148.3  148.3  148.3
   9   160.0  158.2  155.8  153.8  151.9  150.0  148.3  148.3  148.3  148.3
  10   160.0  158.2  155.8  153.8  151.9  150.0  148.3  148.3  148.3  148.3
  11   160.0  158.2  155.9  153.8  152.0  150.1  148.4  148.3  148.3  148.3
  12   160.0  158.2  155.9  153.9  152.1  150.3  149.1  148.5  148.0  147.5
  13   160.0  158.2  155.9  154.0  152.2  150.5  149.4  148.6  147.9  147.2
  14   160.0  158.3  156.1  154.2  152.4  150.8  149.6  148.8  148.1  147.3
  15   160.0  158.4  156.3  154.5  152.8  151.1  150.0  149.2  148.4  147.6
  16   160.0  158.6  156.7  155.1  153.4  151.9  150.7  149.9  149.1  148.4
  17   160.0  158.9  157.3  155.8  154.2  152.7  151.5  150.8  150.0  149.2
1
              HEAD IN LAYER   5 AT END OF TIME STEP   1 IN STRESS PERIOD    1
  ---------------------------------------------------------------------------

         11     12     13     14     15     16     17
 ....................................................
   1   148.5  147.3  145.8  144.2  142.7  141.1  140.0
   2   147.6  146.4  144.9  143.4  141.9  140.6  140.0
   3   146.9  145.7  144.2  142.7  141.4  140.3  140.0
   4   146.5  145.4  143.8  142.4  141.1  140.2  140.0
   5   146.5  145.3  143.7  142.3  141.0  140.1  140.0
   6   146.8  145.5  143.8  142.2  141.0  140.1  140.0
   7   148.2  145.9  143.9  142.3  141.0  140.1  140.0
   8   148.2  146.0  143.9  142.3  141.0  140.1  140.0
   9   148.2  146.0  143.9  142.3  141.0  140.1  140.0
  10   148.2  146.0  143.9  142.3  141.0  140.1  140.0
  11   148.2  145.9  143.9  142.3  141.0  140.1  140.0
  12   146.8  145.5  143.8  142.2  141.0  140.1  140.0
  13   146.5  145.3  143.7  142.3  141.0  140.1  140.0
  14   146.5  145.4  143.8  142.4  141.1  140.2  140.0
  15   146.9  145.7  144.2  142.7  141.4  140.3  140.0
  16   147.6  146.4  144.9  143.4  141.9  140.6  140.0
  17   148.5  147.3  145.8  144.2  142.7  141.1  140.0
1
  VOLUMETRIC BUDGET FOR ENTIRE MODEL AT END OF TIME STEP  1 IN STRESS PERIOD   1
  ------------------------------------------------------------------------------

     CUMULATIVE VOLUMES      L**3       RATES FOR THIS TIME STEP      L**3/T
     ------------------                 ------------------------

           IN:                                      IN:
           ---                                      ---
             STORAGE =           0.0000               STORAGE =           0.0000
       CONSTANT HEAD =      166883.1094         CONSTANT HEAD =      166883.1094
                  ET =           0.0000                    ET =           0.0000
            RECHARGE =     1740000.0000              RECHARGE =     1740000.0000
     SPECIFIED FLOWS =           0.0000       SPECIFIED FLOWS =           0.0000
       LAKE  SEEPAGE =       24954.6270         LAKE  SEEPAGE =       24954.6270

            TOTAL IN =     1931837.7500              TOTAL IN =     1931837.7500

          OUT:                                     OUT:
          ----                                     ----
             STORAGE =           0.0000               STORAGE =           0.0000
       CONSTANT HEAD =        9490.4141         CONSTANT HEAD =        9490.4141
                  ET =     1905448.2500                    ET =     1905448.2500
            RECHARGE =           0.0000              RECHARGE =           0.0000
     SPECIFIED FLOWS =           0.0000       SPECIFIED FLOWS =           0.0000
       LAKE  SEEPAGE =       16884.4727         LAKE  SEEPAGE =       16884.4727

           TOTAL OUT =     1931823.1250             TOTAL OUT =     1931823.1250

            IN - OUT =          14.6250              IN - OUT =          14.6250

 PERCENT DISCREPANCY =           0.00     PERCENT DISCREPANCY =           0.00






          TIME SUMMARY AT END OF TIME STEP   1 IN STRESS PERIOD    1
                    SECONDS     MINUTES      HOURS       DAYS        YEARS
                    -----------------------------------------------------------
   TIME STEP LENGTH  86400.      1440.0      24.000      1.0000     2.73785E-03
 STRESS PERIOD TIME  86400.      1440.0      24.000      1.0000     2.73785E-03
         TOTAL TIME  86400.      1440.0      24.000      1.0000     2.73785E-03
1
