                                  MODFLOW-2000
      U.S. GEOLOGICAL SURVEY MODULAR FINITE-DIFFERENCE GROUND-WATER FLOW MODEL
                           VERSION 1.12.01 10/03/2003


 This model run combines GLOBAL and LIST output into this single file.

 GLOBAL LISTING FILE: l1b2k.lst
                         UNIT    1

 OPENING ../data/l1b2k.ba6
 FILE TYPE:BAS6   UNIT    7   STATUS:OLD    
 FORMAT:FORMATTED              ACCESS:SEQUENTIAL          

 OPENING ../data/l1b2k.bc6
 FILE TYPE:BCF6   UNIT   10   STATUS:OLD    
 FORMAT:FORMATTED              ACCESS:SEQUENTIAL          

 OPENING ../data/l1b2k.evt
 FILE TYPE:EVT   UNIT   11   STATUS:OLD    
 FORMAT:FORMATTED              ACCESS:SEQUENTIAL          

 OPENING ../data/l1b2k.rch
 FILE TYPE:RCH   UNIT   12   STATUS:OLD    
 FORMAT:FORMATTED              ACCESS:SEQUENTIAL          

 OPENING ../data/l1b2k.sip
 FILE TYPE:SIP   UNIT   13   STATUS:OLD    
 FORMAT:FORMATTED              ACCESS:SEQUENTIAL          

 OPENING ../data/l1b2k.oc
 FILE TYPE:OC   UNIT   17   STATUS:OLD    
 FORMAT:FORMATTED              ACCESS:SEQUENTIAL          

 OPENING ../data/l1b2k.lak
 FILE TYPE:LAK   UNIT   16   STATUS:OLD    
 FORMAT:FORMATTED              ACCESS:SEQUENTIAL          

 OPENING ../data/l1b2k.dis
 FILE TYPE:DIS   UNIT   14   STATUS:OLD    
 FORMAT:FORMATTED              ACCESS:SEQUENTIAL          

 OPENING ../data/l1b2k.fhb
 FILE TYPE:FHB   UNIT   21   STATUS:OLD    
 FORMAT:FORMATTED              ACCESS:SEQUENTIAL          


 DISCRETIZATION INPUT DATA READ FROM UNIT   14
    5 LAYERS        17 ROWS        17 COLUMNS
    1 STRESS PERIOD(S) IN SIMULATION
 MODEL TIME UNIT IS DAYS
 MODEL LENGTH UNIT IS UNDEFINED
 THE GROUND-WATER TRANSPORT PROCESS IS INACTIVE

 THE OBSERVATION PROCESS IS INACTIVE
 THE SENSITIVITY PROCESS IS INACTIVE
 THE PARAMETER-ESTIMATION PROCESS IS INACTIVE

 MODE: FORWARD

  Confining bed flag for each layer:
   0   0   0   0   0

      13039  ELEMENTS OF GX ARRAY USED OUT OF      13039
       1445  ELEMENTS OF GZ ARRAY USED OUT OF       1445
       1445  ELEMENTS OF IG ARRAY USED OUT OF       1445



                               DELR
 READING ON UNIT   14 WITH FORMAT: (10F13.0)           
   250.00       1000.0       1000.0       1000.0       1000.0       1000.0       500.00       500.00       500.00       500.00    
   500.00       1000.0       1000.0       1000.0       1000.0       1000.0       250.00    



                               DELC
 READING ON UNIT   14 WITH FORMAT: (10F13.0)           
   250.00       1000.0       1000.0       1000.0       1000.0       1000.0       500.00       500.00       500.00       500.00    
   500.00       1000.0       1000.0       1000.0       1000.0       1000.0       250.00    

 TOP ELEVATION OF LAYER 1 =   500.000    

   MODEL LAYER BOTTOM EL. =   107.000     FOR LAYER   1

   MODEL LAYER BOTTOM EL. =   97.0000     FOR LAYER   2

   MODEL LAYER BOTTOM EL. =   87.0000     FOR LAYER   3

   MODEL LAYER BOTTOM EL. =   77.0000     FOR LAYER   4

   MODEL LAYER BOTTOM EL. =   67.0000     FOR LAYER   5


 STRESS PERIOD     LENGTH       TIME STEPS     MULTIPLIER FOR DELT    SS FLAG
 ----------------------------------------------------------------------------
        1         1.000000          1                    1.000         SS

 STEADY-STATE SIMULATION




 SIP5 -- STRONGLY IMPLICIT PROCEDURE SOLUTION PACKAGE
                    VERSION 5, 9/1/93 INPUT READ FROM UNIT   13
 MAXIMUM OF 500 ITERATIONS ALLOWED FOR CLOSURE
  5 ITERATION PARAMETERS
       6285 ELEMENTS IN X ARRAY ARE USED BY SIP
       1500 ELEMENTS IN IX ARRAY ARE USED BY SIP

       6285  ELEMENTS OF X ARRAY USED OUT OF       6285
          0  ELEMENTS OF Z ARRAY USED OUT OF          1
       1500  ELEMENTS OF IX ARRAY USED OUT OF       1500
          0  ELEMENTS OF XHS ARRAY USED OUT OF          1



          SOLUTION BY THE STRONGLY IMPLICIT PROCEDURE
          -------------------------------------------
 MAXIMUM ITERATIONS ALLOWED FOR CLOSURE =      500
                 ACCELERATION PARAMETER =     1.0000    
      HEAD CHANGE CRITERION FOR CLOSURE =    0.10000E-03
      SIP HEAD CHANGE PRINTOUT INTERVAL =        1

     CALCULATE ITERATION PARAMETERS FROM MODEL CALCULATED WSEED
 
 #Hypothetical simulator of lake and surficial aquifer interaction. ------------ 
 #Shows convergence to equilibrium in transient mode.                            
    5 LAYERS        17 ROWS        17 COLUMNS
    1 STRESS PERIOD(S) IN SIMULATION

 BAS6 -- BASIC PACKAGE, VERSION 6, 1/11/2000 INPUT READ FROM UNIT    7
         25 ELEMENTS IN IR ARRAY ARE USED BY BAS

 BCF6 -- BLOCK-CENTERED FLOW PACKAGE, VERSION 6, 1/11/2000
         INPUT READ FROM UNIT 10
 STEADY-STATE SIMULATION
 HEAD AT CELLS THAT CONVERT TO DRY=   0.0000    
 WETTING CAPABILITY IS ACTIVE
 WETTING FACTOR=   1.00000     WETTING ITERATION INTERVAL=   1
 FLAG THAT SPECIFIES THE EQUATION TO USE FOR HEAD AT WETTED CELLS=   0
      LAYER  LAYER-TYPE CODE     INTERBLOCK T
      --------------------------------------------
         1            1          0 -- HARMONIC    
         2            3          0 -- HARMONIC    
         3            3          0 -- HARMONIC    
         4            3          0 -- HARMONIC    
         5            3          0 -- HARMONIC    
       4340 ELEMENTS IN RX ARRAY ARE USED BY BCF

 EVT6 -- EVAPOTRANSPIRATION PACKAGE, VERSION 6, 12/14/2000
         INPUT READ FROM UNIT   11
 No named parameters
 OPTION 3 -- EVAPOTRANSPIRATION FROM HIGHEST ACTIVE NODE IN EACH VERTICAL COLUMN
        867 ELEMENTS IN RX ARRAY ARE USED BY EVT
        289 ELEMENTS IN IR ARRAY ARE USED BY EVT

 RCH6 -- RECHARGE PACKAGE, VERSION 6, 1/11/2000 INPUT READ FROM UNIT   12
 No named parameters
 OPTION 3 -- RECHARGE TO HIGHEST ACTIVE NODE IN EACH VERTICAL COLUMN
        289 ELEMENTS IN RX ARRAY ARE USED BY RCH
        289 ELEMENTS IN IR ARRAY ARE USED BY RCH
0FHB1 -- SPECIFIED FLOW PACKAGE, VERSION 1,12/3/96 INPUT READ FROM 21
  SPECIFIED FLOW AND HEAD VALUES WILL REMAIN CONSTANT FOR ENTIRE SIMULATION.
 FLOW WILL BE SPECIFIED AT A TOTAL OF    0 CELLS.
 HEAD WILL BE SPECIFIED AT A TOTAL OF  320 CELLS.
 FLOW, HEAD, AND AUX VARIABLES AT TIME=0 WILL BE 
 USED IN STEADY-STATE SIMULATIONS.
  0 AUXILIARY VARIABLES FOR SPECIFIED-FLOW CELLS WILL
  BE DEFINED BY FHB FOR USE BY OTHER PACKAGES.
  0 AUXILIARY VARIABLES FOR SPECIFIED-HEAD CELLS WILL
  BE DEFINED BY FHB FOR USE BY OTHER PACKAGES.
      321 ELEMENTS IN RX ARRAY ARE USED FOR FHB1
     1280 ELEMENTS IN IR ARRAY ARE USED FOR FHB1

 LAK3 -- LAKE PACKAGE, VERSION 3, 6/28/99 INPUT READ FROM UNIT 16
 SPACE ALLOCATION FOR   1445 GRID CELL FACES ADJACENT TO LAKES
 MAXIMUM NUMBER OF LAKES IS  1 FOR THIS SIMULATION
 CELL-BY-CELL SEEPAGES WILL NOT BE PRINTED OR SAVED

 THETA =       0.00  METHOD FOR UPDATING LAKE STAGES IN ITERATIONS OF THE SOLUTION FOR AQUIFER HEADS.
                    0.0 IS EXPLICIT, 0.5 IS CENTERED, AND 1.0 IS FULLY IMPLICIT.

 STEADY-STATE SOLUTION FOR LAKES.  MAXIMUM NUMBER OF ITERATIONS =   50   CONVERGENCE CRITERION =  1.00E-03
       4376 ELEMENTS IN RX ARRAY ARE USED BY LAK
      10124 ELEMENTS IN IR ARRAY ARE USED BY LAK

      10193  ELEMENTS OF RX ARRAY USED OUT OF      10193
      12008  ELEMENTS OF IR ARRAY USED OUT OF      12008
1
 #Hypothetical simulator of lake and surficial aquifer interaction. ------------ 
 #Shows convergence to equilibrium in transient mode.                            



                     BOUNDARY ARRAY FOR LAYER   1
 READING ON UNIT    7 WITH FORMAT: (20I4)              

        1   2   3   4   5   6   7   8   9  10  11  12  13  14  15  16  17
 ........................................................................
   1   -1  -1  -1  -1  -1  -1  -1  -1  -1  -1  -1  -1  -1  -1  -1  -1  -1
   2   -1   1   1   1   1   1   1   1   1   1   1   1   1   1   1   1  -1
   3   -1   1   1   1   1   1   1   1   1   1   1   1   1   1   1   1  -1
   4   -1   1   1   1   1   1   1   1   1   1   1   1   1   1   1   1  -1
   5   -1   1   1   1   1   1   1   1   1   1   1   1   1   1   1   1  -1
   6   -1   1   1   1   1   1   1   1   1   1   1   1   1   1   1   1  -1
   7   -1   1   1   1   1   1   0   0   0   0   0   1   1   1   1   1  -1
   8   -1   1   1   1   1   1   0   0   0   0   0   1   1   1   1   1  -1
   9   -1   1   1   1   1   1   0   0   0   0   0   1   1   1   1   1  -1
  10   -1   1   1   1   1   1   0   0   0   0   0   1   1   1   1   1  -1
  11   -1   1   1   1   1   1   0   0   0   0   0   1   1   1   1   1  -1
  12   -1   1   1   1   1   1   1   1   1   1   1   1   1   1   1   1  -1
  13   -1   1   1   1   1   1   1   1   1   1   1   1   1   1   1   1  -1
  14   -1   1   1   1   1   1   1   1   1   1   1   1   1   1   1   1  -1
  15   -1   1   1   1   1   1   1   1   1   1   1   1   1   1   1   1  -1
  16   -1   1   1   1   1   1   1   1   1   1   1   1   1   1   1   1  -1
  17   -1  -1  -1  -1  -1  -1  -1  -1  -1  -1  -1  -1  -1  -1  -1  -1  -1



                     BOUNDARY ARRAY FOR LAYER   2
 READING ON UNIT    7 WITH FORMAT: (20I4)              

        1   2   3   4   5   6   7   8   9  10  11  12  13  14  15  16  17
 ........................................................................
   1   -1  -1  -1  -1  -1  -1  -1  -1  -1  -1  -1  -1  -1  -1  -1  -1  -1
   2   -1   1   1   1   1   1   1   1   1   1   1   1   1   1   1   1  -1
   3   -1   1   1   1   1   1   1   1   1   1   1   1   1   1   1   1  -1
   4   -1   1   1   1   1   1   1   1   1   1   1   1   1   1   1   1  -1
   5   -1   1   1   1   1   1   1   1   1   1   1   1   1   1   1   1  -1
   6   -1   1   1   1   1   1   1   1   1   1   1   1   1   1   1   1  -1
   7   -1   1   1   1   1   1   1   1   1   1   1   1   1   1   1   1  -1
   8   -1   1   1   1   1   1   1   0   0   0   1   1   1   1   1   1  -1
   9   -1   1   1   1   1   1   1   0   0   0   1   1   1   1   1   1  -1
  10   -1   1   1   1   1   1   1   0   0   0   1   1   1   1   1   1  -1
  11   -1   1   1   1   1   1   1   1   1   1   1   1   1   1   1   1  -1
  12   -1   1   1   1   1   1   1   1   1   1   1   1   1   1   1   1  -1
  13   -1   1   1   1   1   1   1   1   1   1   1   1   1   1   1   1  -1
  14   -1   1   1   1   1   1   1   1   1   1   1   1   1   1   1   1  -1
  15   -1   1   1   1   1   1   1   1   1   1   1   1   1   1   1   1  -1
  16   -1   1   1   1   1   1   1   1   1   1   1   1   1   1   1   1  -1
  17   -1  -1  -1  -1  -1  -1  -1  -1  -1  -1  -1  -1  -1  -1  -1  -1  -1



                     BOUNDARY ARRAY FOR LAYER   3
 READING ON UNIT    7 WITH FORMAT: (20I4)              

        1   2   3   4   5   6   7   8   9  10  11  12  13  14  15  16  17
 ........................................................................
   1   -1  -1  -1  -1  -1  -1  -1  -1  -1  -1  -1  -1  -1  -1  -1  -1  -1
   2   -1   1   1   1   1   1   1   1   1   1   1   1   1   1   1   1  -1
   3   -1   1   1   1   1   1   1   1   1   1   1   1   1   1   1   1  -1
   4   -1   1   1   1   1   1   1   1   1   1   1   1   1   1   1   1  -1
   5   -1   1   1   1   1   1   1   1   1   1   1   1   1   1   1   1  -1
   6   -1   1   1   1   1   1   1   1   1   1   1   1   1   1   1   1  -1
   7   -1   1   1   1   1   1   1   1   1   1   1   1   1   1   1   1  -1
   8   -1   1   1   1   1   1   1   1   1   1   1   1   1   1   1   1  -1
   9   -1   1   1   1   1   1   1   1   1   1   1   1   1   1   1   1  -1
  10   -1   1   1   1   1   1   1   1   1   1   1   1   1   1   1   1  -1
  11   -1   1   1   1   1   1   1   1   1   1   1   1   1   1   1   1  -1
  12   -1   1   1   1   1   1   1   1   1   1   1   1   1   1   1   1  -1
  13   -1   1   1   1   1   1   1   1   1   1   1   1   1   1   1   1  -1
  14   -1   1   1   1   1   1   1   1   1   1   1   1   1   1   1   1  -1
  15   -1   1   1   1   1   1   1   1   1   1   1   1   1   1   1   1  -1
  16   -1   1   1   1   1   1   1   1   1   1   1   1   1   1   1   1  -1
  17   -1  -1  -1  -1  -1  -1  -1  -1  -1  -1  -1  -1  -1  -1  -1  -1  -1



                     BOUNDARY ARRAY FOR LAYER   4
 READING ON UNIT    7 WITH FORMAT: (20I4)              

        1   2   3   4   5   6   7   8   9  10  11  12  13  14  15  16  17
 ........................................................................
   1   -1  -1  -1  -1  -1  -1  -1  -1  -1  -1  -1  -1  -1  -1  -1  -1  -1
   2   -1   1   1   1   1   1   1   1   1   1   1   1   1   1   1   1  -1
   3   -1   1   1   1   1   1   1   1   1   1   1   1   1   1   1   1  -1
   4   -1   1   1   1   1   1   1   1   1   1   1   1   1   1   1   1  -1
   5   -1   1   1   1   1   1   1   1   1   1   1   1   1   1   1   1  -1
   6   -1   1   1   1   1   1   1   1   1   1   1   1   1   1   1   1  -1
   7   -1   1   1   1   1   1   1   1   1   1   1   1   1   1   1   1  -1
   8   -1   1   1   1   1   1   1   1   1   1   1   1   1   1   1   1  -1
   9   -1   1   1   1   1   1   1   1   1   1   1   1   1   1   1   1  -1
  10   -1   1   1   1   1   1   1   1   1   1   1   1   1   1   1   1  -1
  11   -1   1   1   1   1   1   1   1   1   1   1   1   1   1   1   1  -1
  12   -1   1   1   1   1   1   1   1   1   1   1   1   1   1   1   1  -1
  13   -1   1   1   1   1   1   1   1   1   1   1   1   1   1   1   1  -1
  14   -1   1   1   1   1   1   1   1   1   1   1   1   1   1   1   1  -1
  15   -1   1   1   1   1   1   1   1   1   1   1   1   1   1   1   1  -1
  16   -1   1   1   1   1   1   1   1   1   1   1   1   1   1   1   1  -1
  17   -1  -1  -1  -1  -1  -1  -1  -1  -1  -1  -1  -1  -1  -1  -1  -1  -1



                     BOUNDARY ARRAY FOR LAYER   5
 READING ON UNIT    7 WITH FORMAT: (20I4)              

        1   2   3   4   5   6   7   8   9  10  11  12  13  14  15  16  17
 ........................................................................
   1   -1  -1  -1  -1  -1  -1  -1  -1  -1  -1  -1  -1  -1  -1  -1  -1  -1
   2   -1   1   1   1   1   1   1   1   1   1   1   1   1   1   1   1  -1
   3   -1   1   1   1   1   1   1   1   1   1   1   1   1   1   1   1  -1
   4   -1   1   1   1   1   1   1   1   1   1   1   1   1   1   1   1  -1
   5   -1   1   1   1   1   1   1   1   1   1   1   1   1   1   1   1  -1
   6   -1   1   1   1   1   1   1   1   1   1   1   1   1   1   1   1  -1
   7   -1   1   1   1   1   1   1   1   1   1   1   1   1   1   1   1  -1
   8   -1   1   1   1   1   1   1   1   1   1   1   1   1   1   1   1  -1
   9   -1   1   1   1   1   1   1   1   1   1   1   1   1   1   1   1  -1
  10   -1   1   1   1   1   1   1   1   1   1   1   1   1   1   1   1  -1
  11   -1   1   1   1   1   1   1   1   1   1   1   1   1   1   1   1  -1
  12   -1   1   1   1   1   1   1   1   1   1   1   1   1   1   1   1  -1
  13   -1   1   1   1   1   1   1   1   1   1   1   1   1   1   1   1  -1
  14   -1   1   1   1   1   1   1   1   1   1   1   1   1   1   1   1  -1
  15   -1   1   1   1   1   1   1   1   1   1   1   1   1   1   1   1  -1
  16   -1   1   1   1   1   1   1   1   1   1   1   1   1   1   1   1  -1
  17   -1  -1  -1  -1  -1  -1  -1  -1  -1  -1  -1  -1  -1  -1  -1  -1  -1

 AQUIFER HEAD WILL BE SET TO -999.00     AT ALL NO-FLOW NODES (IBOUND=0).

             INITIAL HEAD =   115.000     FOR LAYER   1

             INITIAL HEAD =   115.000     FOR LAYER   2

             INITIAL HEAD =   115.000     FOR LAYER   3

             INITIAL HEAD =   115.000     FOR LAYER   4

             INITIAL HEAD =   115.000     FOR LAYER   5

 OUTPUT CONTROL IS SPECIFIED EVERY TIME STEP
 HEAD PRINT FORMAT CODE IS -14    DRAWDOWN PRINT FORMAT CODE IS   9
 HEADS WILL BE SAVED ON UNIT   18    DRAWDOWNS WILL BE SAVED ON UNIT   19

 COLUMN TO ROW ANISOTROPY =   1.00000    

    HYD. COND. ALONG ROWS =   30.0000     FOR LAYER   1

 VERT HYD COND /THICKNESS =   3.00000     FOR LAYER   1



                   WETDRY PARAMETER FOR LAYER   1
 READING ON UNIT   10 WITH FORMAT: (10F13.0)           

         1     2     3     4     5     6     7     8     9    10    11    12    13    14    15    16    17
 .........................................................................................................
   1    0.0   0.0   0.0   0.0   0.0   0.0   0.0   0.0   0.0   0.0   0.0   0.0   0.0   0.0   0.0   0.0   0.0
   2    0.0  -0.2  -0.2  -0.2  -0.2  -0.2  -0.2  -0.2  -0.2  -0.2  -0.2  -0.2  -0.2  -0.2  -0.2  -0.2   0.0
   3    0.0  -0.2  -0.2  -0.2  -0.2  -0.2  -0.2  -0.2  -0.2  -0.2  -0.2  -0.2  -0.2  -0.2  -0.2  -0.2   0.0
   4    0.0  -0.2  -0.2  -0.2  -0.2  -0.2  -0.2  -0.2  -0.2  -0.2  -0.2  -0.2  -0.2  -0.2  -0.2  -0.2   0.0
   5    0.0  -0.2  -0.2  -0.2  -0.2  -0.2  -0.2  -0.2  -0.2  -0.2  -0.2  -0.2  -0.2  -0.2  -0.2  -0.2   0.0
   6    0.0  -0.2  -0.2  -0.2  -0.2  -0.2  -0.2  -0.2  -0.2  -0.2  -0.2  -0.2  -0.2  -0.2  -0.2  -0.2   0.0
   7    0.0  -0.2  -0.2  -0.2  -0.2  -0.2   0.0   0.0   0.0   0.0   0.0  -0.2  -0.2  -0.2  -0.2  -0.2   0.0
   8    0.0  -0.2  -0.2  -0.2  -0.2  -0.2   0.0   0.0   0.0   0.0   0.0  -0.2  -0.2  -0.2  -0.2  -0.2   0.0
   9    0.0  -0.2  -0.2  -0.2  -0.2  -0.2   0.0   0.0   0.0   0.0   0.0  -0.2  -0.2  -0.2  -0.2  -0.2   0.0
  10    0.0  -0.2  -0.2  -0.2  -0.2  -0.2   0.0   0.0   0.0   0.0   0.0  -0.2  -0.2  -0.2  -0.2  -0.2   0.0
  11    0.0  -0.2  -0.2  -0.2  -0.2  -0.2   0.0   0.0   0.0   0.0   0.0  -0.2  -0.2  -0.2  -0.2  -0.2   0.0
  12    0.0  -0.2  -0.2  -0.2  -0.2  -0.2  -0.2  -0.2  -0.2  -0.2  -0.2  -0.2  -0.2  -0.2  -0.2  -0.2   0.0
  13    0.0  -0.2  -0.2  -0.2  -0.2  -0.2  -0.2  -0.2  -0.2  -0.2  -0.2  -0.2  -0.2  -0.2  -0.2  -0.2   0.0
  14    0.0  -0.2  -0.2  -0.2  -0.2  -0.2  -0.2  -0.2  -0.2  -0.2  -0.2  -0.2  -0.2  -0.2  -0.2  -0.2   0.0
  15    0.0  -0.2  -0.2  -0.2  -0.2  -0.2  -0.2  -0.2  -0.2  -0.2  -0.2  -0.2  -0.2  -0.2  -0.2  -0.2   0.0
  16    0.0  -0.2  -0.2  -0.2  -0.2  -0.2  -0.2  -0.2  -0.2  -0.2  -0.2  -0.2  -0.2  -0.2  -0.2  -0.2   0.0
  17    0.0   0.0   0.0   0.0   0.0   0.0   0.0   0.0   0.0   0.0   0.0   0.0   0.0   0.0   0.0   0.0   0.0

    HYD. COND. ALONG ROWS =   30.0000     FOR LAYER   2

 VERT HYD COND /THICKNESS =   3.00000     FOR LAYER   2



                   WETDRY PARAMETER FOR LAYER   2
 READING ON UNIT   10 WITH FORMAT: (10F13.0)           

         1     2     3     4     5     6     7     8     9    10    11    12    13    14    15    16    17
 .........................................................................................................
   1    0.0   0.0   0.0   0.0   0.0   0.0   0.0   0.0   0.0   0.0   0.0   0.0   0.0   0.0   0.0   0.0   0.0
   2    0.0  -0.2  -0.2  -0.2  -0.2  -0.2  -0.2  -0.2  -0.2  -0.2  -0.2  -0.2  -0.2  -0.2  -0.2  -0.2   0.0
   3    0.0  -0.2  -0.2  -0.2  -0.2  -0.2  -0.2  -0.2  -0.2  -0.2  -0.2  -0.2  -0.2  -0.2  -0.2  -0.2   0.0
   4    0.0  -0.2  -0.2  -0.2  -0.2  -0.2  -0.2  -0.2  -0.2  -0.2  -0.2  -0.2  -0.2  -0.2  -0.2  -0.2   0.0
   5    0.0  -0.2  -0.2  -0.2  -0.2  -0.2  -0.2  -0.2  -0.2  -0.2  -0.2  -0.2  -0.2  -0.2  -0.2  -0.2   0.0
   6    0.0  -0.2  -0.2  -0.2  -0.2  -0.2  -0.2  -0.2  -0.2  -0.2  -0.2  -0.2  -0.2  -0.2  -0.2  -0.2   0.0
   7    0.0  -0.2  -0.2  -0.2  -0.2  -0.2  -0.2  -0.2  -0.2  -0.2  -0.2  -0.2  -0.2  -0.2  -0.2  -0.2   0.0
   8    0.0  -0.2  -0.2  -0.2  -0.2  -0.2  -0.2   0.0   0.0   0.0  -0.2  -0.2  -0.2  -0.2  -0.2  -0.2   0.0
   9    0.0  -0.2  -0.2  -0.2  -0.2  -0.2  -0.2   0.0   0.0   0.0  -0.2  -0.2  -0.2  -0.2  -0.2  -0.2   0.0
  10    0.0  -0.2  -0.2  -0.2  -0.2  -0.2  -0.2   0.0   0.0   0.0  -0.2  -0.2  -0.2  -0.2  -0.2  -0.2   0.0
  11    0.0  -0.2  -0.2  -0.2  -0.2  -0.2  -0.2  -0.2  -0.2  -0.2  -0.2  -0.2  -0.2  -0.2  -0.2  -0.2   0.0
  12    0.0  -0.2  -0.2  -0.2  -0.2  -0.2  -0.2  -0.2  -0.2  -0.2  -0.2  -0.2  -0.2  -0.2  -0.2  -0.2   0.0
  13    0.0  -0.2  -0.2  -0.2  -0.2  -0.2  -0.2  -0.2  -0.2  -0.2  -0.2  -0.2  -0.2  -0.2  -0.2  -0.2   0.0
  14    0.0  -0.2  -0.2  -0.2  -0.2  -0.2  -0.2  -0.2  -0.2  -0.2  -0.2  -0.2  -0.2  -0.2  -0.2  -0.2   0.0
  15    0.0  -0.2  -0.2  -0.2  -0.2  -0.2  -0.2  -0.2  -0.2  -0.2  -0.2  -0.2  -0.2  -0.2  -0.2  -0.2   0.0
  16    0.0  -0.2  -0.2  -0.2  -0.2  -0.2  -0.2  -0.2  -0.2  -0.2  -0.2  -0.2  -0.2  -0.2  -0.2  -0.2   0.0
  17    0.0   0.0   0.0   0.0   0.0   0.0   0.0   0.0   0.0   0.0   0.0   0.0   0.0   0.0   0.0   0.0   0.0

    HYD. COND. ALONG ROWS =   30.0000     FOR LAYER   3

 VERT HYD COND /THICKNESS =   3.00000     FOR LAYER   3



                   WETDRY PARAMETER FOR LAYER   3
 READING ON UNIT   10 WITH FORMAT: (10F13.0)           

         1     2     3     4     5     6     7     8     9    10    11    12    13    14    15    16    17
 .........................................................................................................
   1    0.0   0.0   0.0   0.0   0.0   0.0   0.0   0.0   0.0   0.0   0.0   0.0   0.0   0.0   0.0   0.0   0.0
   2    0.0  -0.2  -0.2  -0.2  -0.2  -0.2  -0.2  -0.2  -0.2  -0.2  -0.2  -0.2  -0.2  -0.2  -0.2  -0.2   0.0
   3    0.0  -0.2  -0.2  -0.2  -0.2  -0.2  -0.2  -0.2  -0.2  -0.2  -0.2  -0.2  -0.2  -0.2  -0.2  -0.2   0.0
   4    0.0  -0.2  -0.2  -0.2  -0.2  -0.2  -0.2  -0.2  -0.2  -0.2  -0.2  -0.2  -0.2  -0.2  -0.2  -0.2   0.0
   5    0.0  -0.2  -0.2  -0.2  -0.2  -0.2  -0.2  -0.2  -0.2  -0.2  -0.2  -0.2  -0.2  -0.2  -0.2  -0.2   0.0
   6    0.0  -0.2  -0.2  -0.2  -0.2  -0.2  -0.2  -0.2  -0.2  -0.2  -0.2  -0.2  -0.2  -0.2  -0.2  -0.2   0.0
   7    0.0  -0.2  -0.2  -0.2  -0.2  -0.2  -0.2  -0.2  -0.2  -0.2  -0.2  -0.2  -0.2  -0.2  -0.2  -0.2   0.0
   8    0.0  -0.2  -0.2  -0.2  -0.2  -0.2  -0.2  -0.2  -0.2  -0.2  -0.2  -0.2  -0.2  -0.2  -0.2  -0.2   0.0
   9    0.0  -0.2  -0.2  -0.2  -0.2  -0.2  -0.2  -0.2  -0.2  -0.2  -0.2  -0.2  -0.2  -0.2  -0.2  -0.2   0.0
  10    0.0  -0.2  -0.2  -0.2  -0.2  -0.2  -0.2  -0.2  -0.2  -0.2  -0.2  -0.2  -0.2  -0.2  -0.2  -0.2   0.0
  11    0.0  -0.2  -0.2  -0.2  -0.2  -0.2  -0.2  -0.2  -0.2  -0.2  -0.2  -0.2  -0.2  -0.2  -0.2  -0.2   0.0
  12    0.0  -0.2  -0.2  -0.2  -0.2  -0.2  -0.2  -0.2  -0.2  -0.2  -0.2  -0.2  -0.2  -0.2  -0.2  -0.2   0.0
  13    0.0  -0.2  -0.2  -0.2  -0.2  -0.2  -0.2  -0.2  -0.2  -0.2  -0.2  -0.2  -0.2  -0.2  -0.2  -0.2   0.0
  14    0.0  -0.2  -0.2  -0.2  -0.2  -0.2  -0.2  -0.2  -0.2  -0.2  -0.2  -0.2  -0.2  -0.2  -0.2  -0.2   0.0
  15    0.0  -0.2  -0.2  -0.2  -0.2  -0.2  -0.2  -0.2  -0.2  -0.2  -0.2  -0.2  -0.2  -0.2  -0.2  -0.2   0.0
  16    0.0  -0.2  -0.2  -0.2  -0.2  -0.2  -0.2  -0.2  -0.2  -0.2  -0.2  -0.2  -0.2  -0.2  -0.2  -0.2   0.0
  17    0.0   0.0   0.0   0.0   0.0   0.0   0.0   0.0   0.0   0.0   0.0   0.0   0.0   0.0   0.0   0.0   0.0

    HYD. COND. ALONG ROWS =   30.0000     FOR LAYER   4

 VERT HYD COND /THICKNESS =   3.00000     FOR LAYER   4



                   WETDRY PARAMETER FOR LAYER   4
 READING ON UNIT   10 WITH FORMAT: (10F13.0)           

         1     2     3     4     5     6     7     8     9    10    11    12    13    14    15    16    17
 .........................................................................................................
   1    0.0   0.0   0.0   0.0   0.0   0.0   0.0   0.0   0.0   0.0   0.0   0.0   0.0   0.0   0.0   0.0   0.0
   2    0.0  -0.2  -0.2  -0.2  -0.2  -0.2  -0.2  -0.2  -0.2  -0.2  -0.2  -0.2  -0.2  -0.2  -0.2  -0.2   0.0
   3    0.0  -0.2  -0.2  -0.2  -0.2  -0.2  -0.2  -0.2  -0.2  -0.2  -0.2  -0.2  -0.2  -0.2  -0.2  -0.2   0.0
   4    0.0  -0.2  -0.2  -0.2  -0.2  -0.2  -0.2  -0.2  -0.2  -0.2  -0.2  -0.2  -0.2  -0.2  -0.2  -0.2   0.0
   5    0.0  -0.2  -0.2  -0.2  -0.2  -0.2  -0.2  -0.2  -0.2  -0.2  -0.2  -0.2  -0.2  -0.2  -0.2  -0.2   0.0
   6    0.0  -0.2  -0.2  -0.2  -0.2  -0.2  -0.2  -0.2  -0.2  -0.2  -0.2  -0.2  -0.2  -0.2  -0.2  -0.2   0.0
   7    0.0  -0.2  -0.2  -0.2  -0.2  -0.2  -0.2  -0.2  -0.2  -0.2  -0.2  -0.2  -0.2  -0.2  -0.2  -0.2   0.0
   8    0.0  -0.2  -0.2  -0.2  -0.2  -0.2  -0.2  -0.2  -0.2  -0.2  -0.2  -0.2  -0.2  -0.2  -0.2  -0.2   0.0
   9    0.0  -0.2  -0.2  -0.2  -0.2  -0.2  -0.2  -0.2  -0.2  -0.2  -0.2  -0.2  -0.2  -0.2  -0.2  -0.2   0.0
  10    0.0  -0.2  -0.2  -0.2  -0.2  -0.2  -0.2  -0.2  -0.2  -0.2  -0.2  -0.2  -0.2  -0.2  -0.2  -0.2   0.0
  11    0.0  -0.2  -0.2  -0.2  -0.2  -0.2  -0.2  -0.2  -0.2  -0.2  -0.2  -0.2  -0.2  -0.2  -0.2  -0.2   0.0
  12    0.0  -0.2  -0.2  -0.2  -0.2  -0.2  -0.2  -0.2  -0.2  -0.2  -0.2  -0.2  -0.2  -0.2  -0.2  -0.2   0.0
  13    0.0  -0.2  -0.2  -0.2  -0.2  -0.2  -0.2  -0.2  -0.2  -0.2  -0.2  -0.2  -0.2  -0.2  -0.2  -0.2   0.0
  14    0.0  -0.2  -0.2  -0.2  -0.2  -0.2  -0.2  -0.2  -0.2  -0.2  -0.2  -0.2  -0.2  -0.2  -0.2  -0.2   0.0
  15    0.0  -0.2  -0.2  -0.2  -0.2  -0.2  -0.2  -0.2  -0.2  -0.2  -0.2  -0.2  -0.2  -0.2  -0.2  -0.2   0.0
  16    0.0  -0.2  -0.2  -0.2  -0.2  -0.2  -0.2  -0.2  -0.2  -0.2  -0.2  -0.2  -0.2  -0.2  -0.2  -0.2   0.0
  17    0.0   0.0   0.0   0.0   0.0   0.0   0.0   0.0   0.0   0.0   0.0   0.0   0.0   0.0   0.0   0.0   0.0

    HYD. COND. ALONG ROWS =   30.0000     FOR LAYER   5



                   WETDRY PARAMETER FOR LAYER   5
 READING ON UNIT   10 WITH FORMAT: (10F13.0)           

         1     2     3     4     5     6     7     8     9    10    11    12    13    14    15    16    17
 .........................................................................................................
   1    0.0   0.0   0.0   0.0   0.0   0.0   0.0   0.0   0.0   0.0   0.0   0.0   0.0   0.0   0.0   0.0   0.0
   2    0.0  -0.2  -0.2  -0.2  -0.2  -0.2  -0.2  -0.2  -0.2  -0.2  -0.2  -0.2  -0.2  -0.2  -0.2  -0.2   0.0
   3    0.0  -0.2  -0.2  -0.2  -0.2  -0.2  -0.2  -0.2  -0.2  -0.2  -0.2  -0.2  -0.2  -0.2  -0.2  -0.2   0.0
   4    0.0  -0.2  -0.2  -0.2  -0.2  -0.2  -0.2  -0.2  -0.2  -0.2  -0.2  -0.2  -0.2  -0.2  -0.2  -0.2   0.0
   5    0.0  -0.2  -0.2  -0.2  -0.2  -0.2  -0.2  -0.2  -0.2  -0.2  -0.2  -0.2  -0.2  -0.2  -0.2  -0.2   0.0
   6    0.0  -0.2  -0.2  -0.2  -0.2  -0.2  -0.2  -0.2  -0.2  -0.2  -0.2  -0.2  -0.2  -0.2  -0.2  -0.2   0.0
   7    0.0  -0.2  -0.2  -0.2  -0.2  -0.2  -0.2  -0.2  -0.2  -0.2  -0.2  -0.2  -0.2  -0.2  -0.2  -0.2   0.0
   8    0.0  -0.2  -0.2  -0.2  -0.2  -0.2  -0.2  -0.2  -0.2  -0.2  -0.2  -0.2  -0.2  -0.2  -0.2  -0.2   0.0
   9    0.0  -0.2  -0.2  -0.2  -0.2  -0.2  -0.2  -0.2  -0.2  -0.2  -0.2  -0.2  -0.2  -0.2  -0.2  -0.2   0.0
  10    0.0  -0.2  -0.2  -0.2  -0.2  -0.2  -0.2  -0.2  -0.2  -0.2  -0.2  -0.2  -0.2  -0.2  -0.2  -0.2   0.0
  11    0.0  -0.2  -0.2  -0.2  -0.2  -0.2  -0.2  -0.2  -0.2  -0.2  -0.2  -0.2  -0.2  -0.2  -0.2  -0.2   0.0
  12    0.0  -0.2  -0.2  -0.2  -0.2  -0.2  -0.2  -0.2  -0.2  -0.2  -0.2  -0.2  -0.2  -0.2  -0.2  -0.2   0.0
  13    0.0  -0.2  -0.2  -0.2  -0.2  -0.2  -0.2  -0.2  -0.2  -0.2  -0.2  -0.2  -0.2  -0.2  -0.2  -0.2   0.0
  14    0.0  -0.2  -0.2  -0.2  -0.2  -0.2  -0.2  -0.2  -0.2  -0.2  -0.2  -0.2  -0.2  -0.2  -0.2  -0.2   0.0
  15    0.0  -0.2  -0.2  -0.2  -0.2  -0.2  -0.2  -0.2  -0.2  -0.2  -0.2  -0.2  -0.2  -0.2  -0.2  -0.2   0.0
  16    0.0  -0.2  -0.2  -0.2  -0.2  -0.2  -0.2  -0.2  -0.2  -0.2  -0.2  -0.2  -0.2  -0.2  -0.2  -0.2   0.0
  17    0.0   0.0   0.0   0.0   0.0   0.0   0.0   0.0   0.0   0.0   0.0   0.0   0.0   0.0   0.0   0.0   0.0


     0 Evapotranspiration parameters


     0 Recharge parameters
 TIMES FOR SPECIFIED-FLOW AND HEAD VALUES WILL BE READ ON UNIT  21 AND
 MULTIPLIED BY   1.000    .
     1 TIMES FOR SPECIFYING FLOWS AND HEADS:
                       1
                 ------------
                    0.000    

 CELL INDICIES AND SPECIFIED-HEAD VALUES WILL BE READ ON UNIT  21. HEAD VALUES
 WILL BE MULTIPLIED BY   1.000    .
 LAYER  ROW  COL IAUX             HEAD VALUES
 -------------------------------
    1    1    1   64   160.0    
    1    2    1   64   160.0    
    1    3    1   64   160.0    
    1    4    1   64   160.0    
    1    5    1   64   160.0    
    1    6    1   64   160.0    
    1    7    1   64   160.0    
    1    8    1   64   160.0    
    1    9    1   64   160.0    
    1   10    1   64   160.0    
    1   11    1   64   160.0    
    1   12    1   64   160.0    
    1   13    1   64   160.0    
    1   14    1   64   160.0    
    1   15    1   64   160.0    
    1   16    1   64   160.0    
    1   17    1   64   160.0    
    1    1   17   64   140.0    
    1    2   17   64   140.0    
    1    3   17   64   140.0    
    1    4   17   64   140.0    
    1    5   17   64   140.0    
    1    6   17   64   140.0    
    1    7   17   64   140.0    
    1    8   17   64   140.0    
    1    9   17   64   140.0    
    1   10   17   64   140.0    
    1   11   17   64   140.0    
    1   12   17   64   140.0    
    1   13   17   64   140.0    
    1   14   17   64   140.0    
    1   15   17   64   140.0    
    1   16   17   64   140.0    
    1   17   17   64   140.0    
    2    1    1   64   160.0    
    2    2    1   64   160.0    
    2    3    1   64   160.0    
    2    4    1   64   160.0    
    2    5    1   64   160.0    
    2    6    1   64   160.0    
    2    7    1   64   160.0    
    2    8    1   64   160.0    
    2    9    1   64   160.0    
    2   10    1   64   160.0    
    2   11    1   64   160.0    
    2   12    1   64   160.0    
    2   13    1   64   160.0    
    2   14    1   64   160.0    
    2   15    1   64   160.0    
    2   16    1   64   160.0    
    2   17    1   64   160.0    
    2    1   17   64   140.0    
    2    2   17   64   140.0    
    2    3   17   64   140.0    
    2    4   17   64   140.0    
    2    5   17   64   140.0    
    2    6   17   64   140.0    
    2    7   17   64   140.0    
    2    8   17   64   140.0    
    2    9   17   64   140.0    
    2   10   17   64   140.0    
    2   11   17   64   140.0    
    2   12   17   64   140.0    
    2   13   17   64   140.0    
    2   14   17   64   140.0    
    2   15   17   64   140.0    
    2   16   17   64   140.0    
    2   17   17   64   140.0    
    3    1    1   64   160.0    
    3    2    1   64   160.0    
    3    3    1   64   160.0    
    3    4    1   64   160.0    
    3    5    1   64   160.0    
    3    6    1   64   160.0    
    3    7    1   64   160.0    
    3    8    1   64   160.0    
    3    9    1   64   160.0    
    3   10    1   64   160.0    
    3   11    1   64   160.0    
    3   12    1   64   160.0    
    3   13    1   64   160.0    
    3   14    1   64   160.0    
    3   15    1   64   160.0    
    3   16    1   64   160.0    
    3   17    1   64   160.0    
    3    1   17   64   140.0    
    3    2   17   64   140.0    
    3    3   17   64   140.0    
    3    4   17   64   140.0    
    3    5   17   64   140.0    
    3    6   17   64   140.0    
    3    7   17   64   140.0    
    3    8   17   64   140.0    
    3    9   17   64   140.0    
    3   10   17   64   140.0    
    3   11   17   64   140.0    
    3   12   17   64   140.0    
    3   13   17   64   140.0    
    3   14   17   64   140.0    
    3   15   17   64   140.0    
    3   16   17   64   140.0    
    3   17   17   64   140.0    
    4    1    1   64   160.0    
    4    2    1   64   160.0    
    4    3    1   64   160.0    
    4    4    1   64   160.0    
    4    5    1   64   160.0    
    4    6    1   64   160.0    
    4    7    1   64   160.0    
    4    8    1   64   160.0    
    4    9    1   64   160.0    
    4   10    1   64   160.0    
    4   11    1   64   160.0    
    4   12    1   64   160.0    
    4   13    1   64   160.0    
    4   14    1   64   160.0    
    4   15    1   64   160.0    
    4   16    1   64   160.0    
    4   17    1   64   160.0    
    4    1   17   64   140.0    
    4    2   17   64   140.0    
    4    3   17   64   140.0    
    4    4   17   64   140.0    
    4    5   17   64   140.0    
    4    6   17   64   140.0    
    4    7   17   64   140.0    
    4    8   17   64   140.0    
    4    9   17   64   140.0    
    4   10   17   64   140.0    
    4   11   17   64   140.0    
    4   12   17   64   140.0    
    4   13   17   64   140.0    
    4   14   17   64   140.0    
    4   15   17   64   140.0    
    4   16   17   64   140.0    
    4   17   17   64   140.0    
    5    1    1   64   160.0    
    5    2    1   64   160.0    
    5    3    1   64   160.0    
    5    4    1   64   160.0    
    5    5    1   64   160.0    
    5    6    1   64   160.0    
    5    7    1   64   160.0    
    5    8    1   64   160.0    
    5    9    1   64   160.0    
    5   10    1   64   160.0    
    5   11    1   64   160.0    
    5   12    1   64   160.0    
    5   13    1   64   160.0    
    5   14    1   64   160.0    
    5   15    1   64   160.0    
    5   16    1   64   160.0    
    5   17    1   64   160.0    
    5    1   17   64   140.0    
    5    2   17   64   140.0    
    5    3   17   64   140.0    
    5    4   17   64   140.0    
    5    5   17   64   140.0    
    5    6   17   64   140.0    
    5    7   17   64   140.0    
    5    8   17   64   140.0    
    5    9   17   64   140.0    
    5   10   17   64   140.0    
    5   11   17   64   140.0    
    5   12   17   64   140.0    
    5   13   17   64   140.0    
    5   14   17   64   140.0    
    5   15   17   64   140.0    
    5   16   17   64   140.0    
    5   17   17   64   140.0    
    1    1    2   64   158.9    
    1    1    3   64   157.3    
    1    1    4   64   155.8    
    1    1    5   64   154.2    
    1    1    6   64   152.7    
    1    1    7   64   151.5    
    1    1    8   64   150.8    
    1    1    9   64   150.0    
    1    1   10   64   149.2    
    1    1   11   64   148.5    
    1    1   12   64   147.3    
    1    1   13   64   145.8    
    1    1   14   64   144.2    
    1    1   15   64   142.7    
    1    1   16   64   141.1    
    1   17    2   64   158.9    
    1   17    3   64   157.3    
    1   17    4   64   155.8    
    1   17    5   64   154.2    
    1   17    6   64   152.7    
    1   17    7   64   151.5    
    1   17    8   64   150.8    
    1   17    9   64   150.0    
    1   17   10   64   149.2    
    1   17   11   64   148.5    
    1   17   12   64   147.3    
    1   17   13   64   145.8    
    1   17   14   64   144.2    
    1   17   15   64   142.7    
    1   17   16   64   141.1    
    2    1    2   64   158.9    
    2    1    3   64   157.3    
    2    1    4   64   155.8    
    2    1    5   64   154.2    
    2    1    6   64   152.7    
    2    1    7   64   151.5    
    2    1    8   64   150.8    
    2    1    9   64   150.0    
    2    1   10   64   149.2    
    2    1   11   64   148.5    
    2    1   12   64   147.3    
    2    1   13   64   145.8    
    2    1   14   64   144.2    
    2    1   15   64   142.7    
    2    1   16   64   141.1    
    2   17    2   64   158.9    
    2   17    3   64   157.3    
    2   17    4   64   155.8    
    2   17    5   64   154.2    
    2   17    6   64   152.7    
    2   17    7   64   151.5    
    2   17    8   64   150.8    
    2   17    9   64   150.0    
    2   17   10   64   149.2    
    2   17   11   64   148.5    
    2   17   12   64   147.3    
    2   17   13   64   145.8    
    2   17   14   64   144.2    
    2   17   15   64   142.7    
    2   17   16   64   141.1    
    3    1    2   64   158.9    
    3    1    3   64   157.3    
    3    1    4   64   155.8    
    3    1    5   64   154.2    
    3    1    6   64   152.7    
    3    1    7   64   151.5    
    3    1    8   64   150.8    
    3    1    9   64   150.0    
    3    1   10   64   149.2    
    3    1   11   64   148.5    
    3    1   12   64   147.3    
    3    1   13   64   145.8    
    3    1   14   64   144.2    
    3    1   15   64   142.7    
    3    1   16   64   141.1    
    3   17    2   64   158.9    
    3   17    3   64   157.3    
    3   17    4   64   155.8    
    3   17    5   64   154.2    
    3   17    6   64   152.7    
    3   17    7   64   151.5    
    3   17    8   64   150.8    
    3   17    9   64   150.0    
    3   17   10   64   149.2    
    3   17   11   64   148.5    
    3   17   12   64   147.3    
    3   17   13   64   145.8    
    3   17   14   64   144.2    
    3   17   15   64   142.7    
    3   17   16   64   141.1    
    4    1    2   64   158.9    
    4    1    3   64   157.3    
    4    1    4   64   155.8    
    4    1    5   64   154.2    
    4    1    6   64   152.7    
    4    1    7   64   151.5    
    4    1    8   64   150.8    
    4    1    9   64   150.0    
    4    1   10   64   149.2    
    4    1   11   64   148.5    
    4    1   12   64   147.3    
    4    1   13   64   145.8    
    4    1   14   64   144.2    
    4    1   15   64   142.7    
    4    1   16   64   141.1    
    4   17    2   64   158.9    
    4   17    3   64   157.3    
    4   17    4   64   155.8    
    4   17    5   64   154.2    
    4   17    6   64   152.7    
    4   17    7   64   151.5    
    4   17    8   64   150.8    
    4   17    9   64   150.0    
    4   17   10   64   149.2    
    4   17   11   64   148.5    
    4   17   12   64   147.3    
    4   17   13   64   145.8    
    4   17   14   64   144.2    
    4   17   15   64   142.7    
    4   17   16   64   141.1    
    5    1    2   64   158.9    
    5    1    3   64   157.3    
    5    1    4   64   155.8    
    5    1    5   64   154.2    
    5    1    6   64   152.7    
    5    1    7   64   151.5    
    5    1    8   64   150.8    
    5    1    9   64   150.0    
    5    1   10   64   149.2    
    5    1   11   64   148.5    
    5    1   12   64   147.3    
    5    1   13   64   145.8    
    5    1   14   64   144.2    
    5    1   15   64   142.7    
    5    1   16   64   141.1    
    5   17    2   64   158.9    
    5   17    3   64   157.3    
    5   17    4   64   155.8    
    5   17    5   64   154.2    
    5   17    6   64   152.7    
    5   17    7   64   151.5    
    5   17    8   64   150.8    
    5   17    9   64   150.0    
    5   17   10   64   149.2    
    5   17   11   64   148.5    
    5   17   12   64   147.3    
    5   17   13   64   145.8    
    5   17   14   64   144.2    
    5   17   15   64   142.7    
    5   17   16   64   141.1    
1
                            STRESS PERIOD NO.    1, LENGTH =   1.000000    
                            -----------------------------------------------

                              NUMBER OF TIME STEPS =     1

                               MULTIPLIER FOR DELT =     1.000

                            INITIAL TIME STEP SIZE =   1.000000    



                         ET SURFACE
 READING ON UNIT   11 WITH FORMAT: (19F6.1)            

         1     2     3     4     5     6     7     8     9    10    11    12    13    14    15    16    17
 .........................................................................................................
   1  160.0 159.0 157.4 155.9 154.3 152.7 151.6 150.8 150.0 149.2 148.4 147.3 145.7 144.1 142.6 141.0 140.0
   2  160.0 159.0 157.4 155.9 154.3 152.7 151.6 150.8 150.0 149.2 148.4 147.3 145.7 144.1 142.6 141.0 140.0
   3  160.0 159.0 157.4 155.9 154.3 152.7 151.6 150.8 150.0 149.2 148.4 147.3 145.7 144.1 142.6 141.0 140.0
   4  160.0 159.0 157.4 155.9 154.3 152.7 151.6 150.8 150.0 149.2 148.4 147.3 145.7 144.1 142.6 141.0 140.0
   5  160.0 159.0 157.4 155.9 154.3 152.7 151.6 150.8 150.0 149.2 148.4 147.3 145.7 144.1 142.6 141.0 140.0
   6  160.0 159.0 157.4 155.9 154.3 152.7 151.6 150.8 150.0 149.2 148.4 147.3 145.7 144.1 142.6 141.0 140.0
   7  160.0 159.0 157.4 155.9 154.3 152.7 105.0 105.0 105.0 105.0 105.0 147.3 145.7 144.1 142.6 141.0 140.0
   8  160.0 159.0 157.4 155.9 154.3 152.7 105.0  95.0  95.0  95.0 105.0 147.3 145.7 144.1 142.6 141.0 140.0
   9  160.0 159.0 157.4 155.9 154.3 152.7 105.0  95.0  95.0  95.0 105.0 147.3 145.7 144.1 142.6 141.0 140.0
  10  160.0 159.0 157.4 155.9 154.3 152.7 105.0  95.0  95.0  95.0 105.0 147.3 145.7 144.1 142.6 141.0 140.0
  11  160.0 159.0 157.4 155.9 154.3 152.7 105.0 105.0 105.0 105.0 105.0 147.3 145.7 144.1 142.6 141.0 140.0
  12  160.0 159.0 157.4 155.9 154.3 152.7 151.6 150.8 150.0 149.2 148.4 147.3 145.7 144.1 142.6 141.0 140.0
  13  160.0 159.0 157.4 155.9 154.3 152.7 151.6 150.8 150.0 149.2 148.4 147.3 145.7 144.1 142.6 141.0 140.0
  14  160.0 159.0 157.4 155.9 154.3 152.7 151.6 150.8 150.0 149.2 148.4 147.3 145.7 144.1 142.6 141.0 140.0
  15  160.0 159.0 157.4 155.9 154.3 152.7 151.6 150.8 150.0 149.2 148.4 147.3 145.7 144.1 142.6 141.0 140.0
  16  160.0 159.0 157.4 155.9 154.3 152.7 151.6 150.8 150.0 149.2 148.4 147.3 145.7 144.1 142.6 141.0 140.0
  17  160.0 159.0 157.4 155.9 154.3 152.7 151.6 150.8 150.0 149.2 148.4 147.3 145.7 144.1 142.6 141.0 140.0

  EVAPOTRANSPIRATION RATE =  1.410000E-02

         EXTINCTION DEPTH =   15.0000    

                 RECHARGE =  1.160000E-02



 INITIAL LAKE STAGE:  LAKE    STAGE    SS MIN    SS MAX

                        1   110.000   100.000   170.000





                      LAKE ID ARRAY FOR LAYER   1
 READING ON UNIT   16 WITH FORMAT: (24I3)              

        1   2   3   4   5   6   7   8   9  10  11  12  13  14  15  16  17
 ........................................................................
   1    0   0   0   0   0   0   0   0   0   0   0   0   0   0   0   0   0
   2    0   0   0   0   0   0   0   0   0   0   0   0   0   0   0   0   0
   3    0   0   0   0   0   0   0   0   0   0   0   0   0   0   0   0   0
   4    0   0   0   0   0   0   0   0   0   0   0   0   0   0   0   0   0
   5    0   0   0   0   0   0   0   0   0   0   0   0   0   0   0   0   0
   6    0   0   0   0   0   0   0   0   0   0   0   0   0   0   0   0   0
   7    0   0   0   0   0   0   1   1   1   1   1   0   0   0   0   0   0
   8    0   0   0   0   0   0   1   1   1   1   1   0   0   0   0   0   0
   9    0   0   0   0   0   0   1   1   1   1   1   0   0   0   0   0   0
  10    0   0   0   0   0   0   1   1   1   1   1   0   0   0   0   0   0
  11    0   0   0   0   0   0   1   1   1   1   1   0   0   0   0   0   0
  12    0   0   0   0   0   0   0   0   0   0   0   0   0   0   0   0   0
  13    0   0   0   0   0   0   0   0   0   0   0   0   0   0   0   0   0
  14    0   0   0   0   0   0   0   0   0   0   0   0   0   0   0   0   0
  15    0   0   0   0   0   0   0   0   0   0   0   0   0   0   0   0   0
  16    0   0   0   0   0   0   0   0   0   0   0   0   0   0   0   0   0
  17    0   0   0   0   0   0   0   0   0   0   0   0   0   0   0   0   0



                      LAKE ID ARRAY FOR LAYER   2
 READING ON UNIT   16 WITH FORMAT: (24I3)              

        1   2   3   4   5   6   7   8   9  10  11  12  13  14  15  16  17
 ........................................................................
   1    0   0   0   0   0   0   0   0   0   0   0   0   0   0   0   0   0
   2    0   0   0   0   0   0   0   0   0   0   0   0   0   0   0   0   0
   3    0   0   0   0   0   0   0   0   0   0   0   0   0   0   0   0   0
   4    0   0   0   0   0   0   0   0   0   0   0   0   0   0   0   0   0
   5    0   0   0   0   0   0   0   0   0   0   0   0   0   0   0   0   0
   6    0   0   0   0   0   0   0   0   0   0   0   0   0   0   0   0   0
   7    0   0   0   0   0   0   0   0   0   0   0   0   0   0   0   0   0
   8    0   0   0   0   0   0   0   1   1   1   0   0   0   0   0   0   0
   9    0   0   0   0   0   0   0   1   1   1   0   0   0   0   0   0   0
  10    0   0   0   0   0   0   0   1   1   1   0   0   0   0   0   0   0
  11    0   0   0   0   0   0   0   0   0   0   0   0   0   0   0   0   0
  12    0   0   0   0   0   0   0   0   0   0   0   0   0   0   0   0   0
  13    0   0   0   0   0   0   0   0   0   0   0   0   0   0   0   0   0
  14    0   0   0   0   0   0   0   0   0   0   0   0   0   0   0   0   0
  15    0   0   0   0   0   0   0   0   0   0   0   0   0   0   0   0   0
  16    0   0   0   0   0   0   0   0   0   0   0   0   0   0   0   0   0
  17    0   0   0   0   0   0   0   0   0   0   0   0   0   0   0   0   0

            LAKE ID ARRAY =              0 FOR LAYER   3

            LAKE ID ARRAY =              0 FOR LAYER   4

            LAKE ID ARRAY =              0 FOR LAYER   5



   LAKEBED LEAKANCE ARRAY =  0.100000     FOR LAYER   1

   LAKEBED LEAKANCE ARRAY =  0.100000     FOR LAYER   2

   LAKEBED LEAKANCE ARRAY =  0.100000     FOR LAYER   3

   LAKEBED LEAKANCE ARRAY =  0.100000     FOR LAYER   4

   LAKEBED LEAKANCE ARRAY =  0.100000     FOR LAYER   5

       LOCATIONS, LAKE #, INTERFACE TYPE FOR GRID CELLS ADJACENT TO LAKES:
     -----------------------------------------------------------------------
     LAYER #    ROW #    COLUMN #   LAKE #  INTERFACE TYPE  LAKEBED LEAKANCE
         1         7         6         1         2             0.10000
         1         8         6         1         2             0.10000
         1         9         6         1         2             0.10000
         1        10         6         1         2             0.10000
         1        11         6         1         2             0.10000
         1         6         7         1         3             0.10000
         2         7         7         1         6             0.10000
         2         8         7         1         6             0.10000
         2         8         7         1         2             0.10000
         2         9         7         1         6             0.10000
         2         9         7         1         2             0.10000
         2        10         7         1         6             0.10000
         2        10         7         1         2             0.10000
         2        11         7         1         6             0.10000
         1        12         7         1         4             0.10000
         1         6         8         1         3             0.10000
         2         7         8         1         6             0.10000
         2         7         8         1         3             0.10000
         3         8         8         1         6             0.10000
         3         9         8         1         6             0.10000
         3        10         8         1         6             0.10000
         2        11         8         1         6             0.10000
         2        11         8         1         4             0.10000
         1        12         8         1         4             0.10000
         1         6         9         1         3             0.10000
         2         7         9         1         6             0.10000
         2         7         9         1         3             0.10000
         3         8         9         1         6             0.10000
         3         9         9         1         6             0.10000
         3        10         9         1         6             0.10000
         2        11         9         1         6             0.10000
         2        11         9         1         4             0.10000
         1        12         9         1         4             0.10000
         1         6        10         1         3             0.10000
         2         7        10         1         6             0.10000
         2         7        10         1         3             0.10000
         3         8        10         1         6             0.10000
         3         9        10         1         6             0.10000
         3        10        10         1         6             0.10000
         2        11        10         1         6             0.10000
         2        11        10         1         4             0.10000
         1        12        10         1         4             0.10000
         1         6        11         1         3             0.10000
         2         7        11         1         6             0.10000
         2         8        11         1         6             0.10000
         2         8        11         1         1             0.10000
         2         9        11         1         6             0.10000
         2         9        11         1         1             0.10000
         2        10        11         1         6             0.10000
         2        10        11         1         1             0.10000
         2        11        11         1         6             0.10000
         1        12        11         1         4             0.10000
         1         7        12         1         1             0.10000
         1         8        12         1         1             0.10000
         1         9        12         1         1             0.10000
         1        10        12         1         1             0.10000
         1        11        12         1         1             0.10000

     NUMBER OF LAKE-AQUIFER CELL INTERFACES =    57


 STAGE/VOLUME RELATION FOR LAKE  1

   STAGE    VOLUME

   97.0000  0.000E+00
   97.2000  4.500E+05
   97.4000  9.000E+05
   97.6000  1.350E+06
   97.8000  1.800E+06
   98.0000  2.250E+06
   98.2000  2.700E+06
   98.4000  3.150E+06
   98.6000  3.600E+06
   98.8000  4.050E+06
   99.0000  4.500E+06
   99.2000  4.950E+06
   99.4000  5.400E+06
   99.6000  5.850E+06
   99.8000  6.300E+06
  100.0000  6.750E+06
  100.2000  7.200E+06
  100.4000  7.650E+06
  100.6000  8.100E+06
  100.8000  8.550E+06
  101.0000  9.000E+06
  101.2000  9.450E+06
  101.4000  9.900E+06
  101.6000  1.035E+07
  101.8000  1.080E+07
  102.0000  1.125E+07
  102.2000  1.170E+07
  102.4000  1.215E+07
  102.6000  1.260E+07
  102.8000  1.305E+07
  103.0000  1.350E+07
  103.2000  1.395E+07
  103.4000  1.440E+07
  103.6000  1.485E+07
  103.8000  1.530E+07
  104.0000  1.575E+07
  104.2000  1.620E+07
  104.4000  1.665E+07
  104.6000  1.710E+07
  104.8000  1.755E+07
  105.0000  1.800E+07
  105.2000  1.845E+07
  105.4000  1.890E+07
  105.6000  1.935E+07
  105.8000  1.980E+07
  106.0000  2.025E+07
  106.2000  2.070E+07
  106.4000  2.115E+07
  106.6000  2.160E+07
  106.8000  2.205E+07
  107.0000  2.250E+07
  107.2000  2.375E+07
  107.4000  2.500E+07
  107.6000  2.625E+07
  107.8000  2.750E+07
  108.0000  2.875E+07
  108.2000  3.000E+07
  108.4000  3.125E+07
  108.6000  3.250E+07
  108.8000  3.375E+07
  109.0000  3.500E+07
  109.2000  3.625E+07
  109.4000  3.750E+07
  109.6000  3.875E+07
  109.8000  4.000E+07
  110.0000  4.125E+07
  110.2000  4.250E+07
  110.4000  4.375E+07
  110.6000  4.500E+07
  110.8000  4.625E+07
  111.0000  4.750E+07
  111.2000  4.875E+07
  111.4000  5.000E+07
  111.6000  5.125E+07
  111.8000  5.250E+07
  112.0000  5.375E+07
  112.2000  5.500E+07
  112.4000  5.625E+07
  112.6000  5.750E+07
  112.8000  5.875E+07
  113.0000  6.000E+07
  113.2000  6.125E+07
  113.4000  6.250E+07
  113.6000  6.375E+07
  113.8000  6.500E+07
  114.0000  6.625E+07
  114.2000  6.750E+07
  114.4000  6.875E+07
  114.6000  7.000E+07
  114.8000  7.125E+07
  115.0000  7.250E+07
  115.2000  7.375E+07
  115.4000  7.500E+07
  115.6000  7.625E+07
  115.8000  7.750E+07
  116.0000  7.875E+07
  116.2000  8.000E+07
  116.4000  8.125E+07
  116.6000  8.250E+07
  116.8000  8.375E+07
  117.0000  8.500E+07
  117.2000  8.625E+07
  117.4000  8.750E+07
  117.6000  8.875E+07
  117.8000  9.000E+07
  118.0000  9.125E+07
  118.2000  9.250E+07
  118.4000  9.375E+07
  118.6000  9.500E+07
  118.8000  9.625E+07
  119.0000  9.750E+07
  119.2000  9.875E+07
  119.4000  1.000E+08
  119.6000  1.012E+08
  119.8000  1.025E+08
  120.0000  1.038E+08
  120.2000  1.050E+08
  120.4000  1.062E+08
  120.6000  1.075E+08
  120.8000  1.088E+08
  121.0000  1.100E+08
  121.2000  1.112E+08
  121.4000  1.125E+08
  121.6000  1.138E+08
  121.8000  1.150E+08
  122.0000  1.162E+08
  122.2000  1.175E+08
  122.4000  1.188E+08
  122.6000  1.200E+08
  122.8000  1.212E+08
  123.0000  1.225E+08
  123.2000  1.238E+08
  123.4000  1.250E+08
  123.6000  1.262E+08
  123.8000  1.275E+08
  124.0000  1.288E+08
  124.2000  1.300E+08
  124.4000  1.312E+08
  124.6000  1.325E+08
  124.8000  1.338E+08
  125.0000  1.350E+08
  125.2000  1.362E+08
  125.4000  1.375E+08
  125.6000  1.388E+08
  125.8000  1.400E+08
  126.0000  1.412E+08
  126.2000  1.425E+08
  126.4000  1.438E+08
  126.6000  1.450E+08
  126.8000  1.462E+08
  127.0000  1.475E+08


 NUMBER OF CONNECTED LAKE SYSTEMS IN SIMULATION IS   0

 LAKE       PRECIP     EVAP     RUNOFF   WITHDRAW   BOTTOM     AREA
----------------------------------------------------------------------
   1     1.160E-02 1.030E-02 0.000E+00  0.000E+00 9.700E+01 6.250E+06




         C               INTERFACE CONDUCTANCES BETWEEN LAKE AND AQUIFER CELLS
   L     O          (IF TYPE = 0, CONDUCTANCE (L^2/T) IS BETWEEN AQUIFER CELL AND OVERLYING LAKE CELL.)
   A     L  L  T    (IF TYPE = 1 TO 4, CONDUCTANCES ARE PER UNIT SATURATED THICKNESS (L/T).)
   Y  R  U  A  Y
   E  O  M  K  P                        LAKEBED      C O N D U C T A N C E S
   R  W  N  E  E     DELTA Y   DELTA X  LEAKANCE   LAKEBED   AQUIFER  COMBINED
 _______________________________________________________________________________
   1  7  6  1  2    5.00E+02  1.00E+03  1.00E-01  5.00E+01  3.00E+01  1.88E+01
   1  8  6  1  2    5.00E+02  1.00E+03  1.00E-01  5.00E+01  3.00E+01  1.88E+01
   1  9  6  1  2    5.00E+02  1.00E+03  1.00E-01  5.00E+01  3.00E+01  1.88E+01
   1 10  6  1  2    5.00E+02  1.00E+03  1.00E-01  5.00E+01  3.00E+01  1.88E+01
   1 11  6  1  2    5.00E+02  1.00E+03  1.00E-01  5.00E+01  3.00E+01  1.88E+01
   1  6  7  1  3    1.00E+03  5.00E+02  1.00E-01  5.00E+01  3.00E+01  1.88E+01
   2  7  7  1  6    5.00E+02  5.00E+02  1.00E-01  2.50E+04  1.50E+06  2.46E+04
   2  8  7  1  6    5.00E+02  5.00E+02  1.00E-01  2.50E+04  1.50E+06  2.46E+04
   2  8  7  1  2    5.00E+02  5.00E+02  1.00E-01  5.00E+01  6.00E+01  2.73E+01
   2  9  7  1  6    5.00E+02  5.00E+02  1.00E-01  2.50E+04  1.50E+06  2.46E+04
   2  9  7  1  2    5.00E+02  5.00E+02  1.00E-01  5.00E+01  6.00E+01  2.73E+01
   2 10  7  1  6    5.00E+02  5.00E+02  1.00E-01  2.50E+04  1.50E+06  2.46E+04
   2 10  7  1  2    5.00E+02  5.00E+02  1.00E-01  5.00E+01  6.00E+01  2.73E+01
   2 11  7  1  6    5.00E+02  5.00E+02  1.00E-01  2.50E+04  1.50E+06  2.46E+04
   1 12  7  1  4    1.00E+03  5.00E+02  1.00E-01  5.00E+01  3.00E+01  1.88E+01
   1  6  8  1  3    1.00E+03  5.00E+02  1.00E-01  5.00E+01  3.00E+01  1.88E+01
   2  7  8  1  6    5.00E+02  5.00E+02  1.00E-01  2.50E+04  1.50E+06  2.46E+04
   2  7  8  1  3    5.00E+02  5.00E+02  1.00E-01  5.00E+01  6.00E+01  2.73E+01
   3  8  8  1  6    5.00E+02  5.00E+02  1.00E-01  2.50E+04  1.50E+06  2.46E+04
   3  9  8  1  6    5.00E+02  5.00E+02  1.00E-01  2.50E+04  1.50E+06  2.46E+04
   3 10  8  1  6    5.00E+02  5.00E+02  1.00E-01  2.50E+04  1.50E+06  2.46E+04
   2 11  8  1  6    5.00E+02  5.00E+02  1.00E-01  2.50E+04  1.50E+06  2.46E+04
   2 11  8  1  4    5.00E+02  5.00E+02  1.00E-01  5.00E+01  6.00E+01  2.73E+01
   1 12  8  1  4    1.00E+03  5.00E+02  1.00E-01  5.00E+01  3.00E+01  1.88E+01
   1  6  9  1  3    1.00E+03  5.00E+02  1.00E-01  5.00E+01  3.00E+01  1.88E+01
   2  7  9  1  6    5.00E+02  5.00E+02  1.00E-01  2.50E+04  1.50E+06  2.46E+04
   2  7  9  1  3    5.00E+02  5.00E+02  1.00E-01  5.00E+01  6.00E+01  2.73E+01
   3  8  9  1  6    5.00E+02  5.00E+02  1.00E-01  2.50E+04  1.50E+06  2.46E+04
   3  9  9  1  6    5.00E+02  5.00E+02  1.00E-01  2.50E+04  1.50E+06  2.46E+04
   3 10  9  1  6    5.00E+02  5.00E+02  1.00E-01  2.50E+04  1.50E+06  2.46E+04
   2 11  9  1  6    5.00E+02  5.00E+02  1.00E-01  2.50E+04  1.50E+06  2.46E+04
   2 11  9  1  4    5.00E+02  5.00E+02  1.00E-01  5.00E+01  6.00E+01  2.73E+01
   1 12  9  1  4    1.00E+03  5.00E+02  1.00E-01  5.00E+01  3.00E+01  1.88E+01
   1  6 10  1  3    1.00E+03  5.00E+02  1.00E-01  5.00E+01  3.00E+01  1.88E+01
   2  7 10  1  6    5.00E+02  5.00E+02  1.00E-01  2.50E+04  1.50E+06  2.46E+04
   2  7 10  1  3    5.00E+02  5.00E+02  1.00E-01  5.00E+01  6.00E+01  2.73E+01
   3  8 10  1  6    5.00E+02  5.00E+02  1.00E-01  2.50E+04  1.50E+06  2.46E+04
   3  9 10  1  6    5.00E+02  5.00E+02  1.00E-01  2.50E+04  1.50E+06  2.46E+04
   3 10 10  1  6    5.00E+02  5.00E+02  1.00E-01  2.50E+04  1.50E+06  2.46E+04
   2 11 10  1  6    5.00E+02  5.00E+02  1.00E-01  2.50E+04  1.50E+06  2.46E+04
   2 11 10  1  4    5.00E+02  5.00E+02  1.00E-01  5.00E+01  6.00E+01  2.73E+01
   1 12 10  1  4    1.00E+03  5.00E+02  1.00E-01  5.00E+01  3.00E+01  1.88E+01
   1  6 11  1  3    1.00E+03  5.00E+02  1.00E-01  5.00E+01  3.00E+01  1.88E+01
   2  7 11  1  6    5.00E+02  5.00E+02  1.00E-01  2.50E+04  1.50E+06  2.46E+04
   2  8 11  1  6    5.00E+02  5.00E+02  1.00E-01  2.50E+04  1.50E+06  2.46E+04
   2  8 11  1  1    5.00E+02  5.00E+02  1.00E-01  5.00E+01  6.00E+01  2.73E+01
   2  9 11  1  6    5.00E+02  5.00E+02  1.00E-01  2.50E+04  1.50E+06  2.46E+04
   2  9 11  1  1    5.00E+02  5.00E+02  1.00E-01  5.00E+01  6.00E+01  2.73E+01
   2 10 11  1  6    5.00E+02  5.00E+02  1.00E-01  2.50E+04  1.50E+06  2.46E+04
   2 10 11  1  1    5.00E+02  5.00E+02  1.00E-01  5.00E+01  6.00E+01  2.73E+01
   2 11 11  1  6    5.00E+02  5.00E+02  1.00E-01  2.50E+04  1.50E+06  2.46E+04
   1 12 11  1  4    1.00E+03  5.00E+02  1.00E-01  5.00E+01  3.00E+01  1.88E+01
   1  7 12  1  1    5.00E+02  1.00E+03  1.00E-01  5.00E+01  3.00E+01  1.88E+01
   1  8 12  1  1    5.00E+02  1.00E+03  1.00E-01  5.00E+01  3.00E+01  1.88E+01
   1  9 12  1  1    5.00E+02  1.00E+03  1.00E-01  5.00E+01  3.00E+01  1.88E+01
   1 10 12  1  1    5.00E+02  1.00E+03  1.00E-01  5.00E+01  3.00E+01  1.88E+01
   1 11 12  1  1    5.00E+02  1.00E+03  1.00E-01  5.00E+01  3.00E+01  1.88E+01
 
 SOLVING FOR HEAD 
 ALL LAKES CONVERGED TO STEADY-STATE AFTER   2  ITERATIONS
 LAKE STAGES =     115.013

 AVERAGE SEED = 0.00000194
 MINIMUM SEED = 0.00000137

     5 ITERATION PARAMETERS CALCULATED FROM AVERAGE SEED:

  0.000000E+00 0.962690E+00 0.998608E+00 0.999948E+00 0.999998E+00
 ALL LAKES CONVERGED TO STEADY-STATE AFTER   2  ITERATIONS
 LAKE STAGES =     115.036
 ALL LAKES CONVERGED TO STEADY-STATE AFTER   2  ITERATIONS
 LAKE STAGES =     115.107
 ALL LAKES CONVERGED TO STEADY-STATE AFTER   2  ITERATIONS
 LAKE STAGES =     115.297
 ALL LAKES CONVERGED TO STEADY-STATE AFTER   2  ITERATIONS
 LAKE STAGES =     115.623
 ALL LAKES CONVERGED TO STEADY-STATE AFTER   2  ITERATIONS
 LAKE STAGES =     116.368
 ALL LAKES CONVERGED TO STEADY-STATE AFTER   2  ITERATIONS
 LAKE STAGES =     116.952
 ALL LAKES CONVERGED TO STEADY-STATE AFTER   2  ITERATIONS
 LAKE STAGES =     117.568
 ALL LAKES CONVERGED TO STEADY-STATE AFTER   2  ITERATIONS
 LAKE STAGES =     117.926
 ALL LAKES CONVERGED TO STEADY-STATE AFTER   2  ITERATIONS
 LAKE STAGES =     118.568
 ALL LAKES CONVERGED TO STEADY-STATE AFTER   2  ITERATIONS
 LAKE STAGES =     118.811
 ALL LAKES CONVERGED TO STEADY-STATE AFTER   2  ITERATIONS
 LAKE STAGES =     119.377
 ALL LAKES CONVERGED TO STEADY-STATE AFTER   2  ITERATIONS
 LAKE STAGES =     119.882
 ALL LAKES CONVERGED TO STEADY-STATE AFTER   2  ITERATIONS
 LAKE STAGES =     120.477
 ALL LAKES CONVERGED TO STEADY-STATE AFTER   2  ITERATIONS
 LAKE STAGES =     120.743
 ALL LAKES CONVERGED TO STEADY-STATE AFTER   2  ITERATIONS
 LAKE STAGES =     121.337
 ALL LAKES CONVERGED TO STEADY-STATE AFTER   2  ITERATIONS
 LAKE STAGES =     121.860
 ALL LAKES CONVERGED TO STEADY-STATE AFTER   2  ITERATIONS
 LAKE STAGES =     122.405
 ALL LAKES CONVERGED TO STEADY-STATE AFTER   2  ITERATIONS
 LAKE STAGES =     122.714
 ALL LAKES CONVERGED TO STEADY-STATE AFTER   2  ITERATIONS
 LAKE STAGES =     123.275
 ALL LAKES CONVERGED TO STEADY-STATE AFTER   2  ITERATIONS
 LAKE STAGES =     123.487
 ALL LAKES CONVERGED TO STEADY-STATE AFTER   2  ITERATIONS
 LAKE STAGES =     123.981
 ALL LAKES CONVERGED TO STEADY-STATE AFTER   2  ITERATIONS
 LAKE STAGES =     124.421
 ALL LAKES CONVERGED TO STEADY-STATE AFTER   2  ITERATIONS
 LAKE STAGES =     124.937
 ALL LAKES CONVERGED TO STEADY-STATE AFTER   2  ITERATIONS
 LAKE STAGES =     125.165
 ALL LAKES CONVERGED TO STEADY-STATE AFTER   2  ITERATIONS
 LAKE STAGES =     125.674
 ALL LAKES CONVERGED TO STEADY-STATE AFTER   2  ITERATIONS
 LAKE STAGES =     126.124
 ALL LAKES CONVERGED TO STEADY-STATE AFTER   2  ITERATIONS
 LAKE STAGES =     126.591
 ALL LAKES CONVERGED TO STEADY-STATE AFTER   2  ITERATIONS
 LAKE STAGES =     126.855
 ALL LAKES CONVERGED TO STEADY-STATE AFTER   2  ITERATIONS
 LAKE STAGES =     127.332
 ALL LAKES CONVERGED TO STEADY-STATE AFTER   2  ITERATIONS
 LAKE STAGES =     127.513
 ALL LAKES CONVERGED TO STEADY-STATE AFTER   2  ITERATIONS
 LAKE STAGES =     127.933
 ALL LAKES CONVERGED TO STEADY-STATE AFTER   2  ITERATIONS
 LAKE STAGES =     128.307
 ALL LAKES CONVERGED TO STEADY-STATE AFTER   2  ITERATIONS
 LAKE STAGES =     128.746
 ALL LAKES CONVERGED TO STEADY-STATE AFTER   2  ITERATIONS
 LAKE STAGES =     128.940
 ALL LAKES CONVERGED TO STEADY-STATE AFTER   2  ITERATIONS
 LAKE STAGES =     129.372
 ALL LAKES CONVERGED TO STEADY-STATE AFTER   2  ITERATIONS
 LAKE STAGES =     129.753
 ALL LAKES CONVERGED TO STEADY-STATE AFTER   2  ITERATIONS
 LAKE STAGES =     130.149
 ALL LAKES CONVERGED TO STEADY-STATE AFTER   2  ITERATIONS
 LAKE STAGES =     130.373
 ALL LAKES CONVERGED TO STEADY-STATE AFTER   2  ITERATIONS
 LAKE STAGES =     130.777
 ALL LAKES CONVERGED TO STEADY-STATE AFTER   2  ITERATIONS
 LAKE STAGES =     130.931
 ALL LAKES CONVERGED TO STEADY-STATE AFTER   2  ITERATIONS
 LAKE STAGES =     131.286
 ALL LAKES CONVERGED TO STEADY-STATE AFTER   2  ITERATIONS
 LAKE STAGES =     131.603
 ALL LAKES CONVERGED TO STEADY-STATE AFTER   2  ITERATIONS
 LAKE STAGES =     131.974
 ALL LAKES CONVERGED TO STEADY-STATE AFTER   2  ITERATIONS
 LAKE STAGES =     132.138
 ALL LAKES CONVERGED TO STEADY-STATE AFTER   2  ITERATIONS
 LAKE STAGES =     132.503
 ALL LAKES CONVERGED TO STEADY-STATE AFTER   2  ITERATIONS
 LAKE STAGES =     132.825
 ALL LAKES CONVERGED TO STEADY-STATE AFTER   2  ITERATIONS
 LAKE STAGES =     133.159
 ALL LAKES CONVERGED TO STEADY-STATE AFTER   2  ITERATIONS
 LAKE STAGES =     133.348
 ALL LAKES CONVERGED TO STEADY-STATE AFTER   2  ITERATIONS
 LAKE STAGES =     133.689
 ALL LAKES CONVERGED TO STEADY-STATE AFTER   2  ITERATIONS
 LAKE STAGES =     133.819
 ALL LAKES CONVERGED TO STEADY-STATE AFTER   2  ITERATIONS
 LAKE STAGES =     134.118
 ALL LAKES CONVERGED TO STEADY-STATE AFTER   2  ITERATIONS
 LAKE STAGES =     134.385
 ALL LAKES CONVERGED TO STEADY-STATE AFTER   2  ITERATIONS
 LAKE STAGES =     134.697
 ALL LAKES CONVERGED TO STEADY-STATE AFTER   2  ITERATIONS
 LAKE STAGES =     134.835
 ALL LAKES CONVERGED TO STEADY-STATE AFTER   2  ITERATIONS
 LAKE STAGES =     135.143
 ALL LAKES CONVERGED TO STEADY-STATE AFTER   2  ITERATIONS
 LAKE STAGES =     135.414
 ALL LAKES CONVERGED TO STEADY-STATE AFTER   2  ITERATIONS
 LAKE STAGES =     135.695
 ALL LAKES CONVERGED TO STEADY-STATE AFTER   2  ITERATIONS
 LAKE STAGES =     135.853
 ALL LAKES CONVERGED TO STEADY-STATE AFTER   2  ITERATIONS
 LAKE STAGES =     136.140
 ALL LAKES CONVERGED TO STEADY-STATE AFTER   2  ITERATIONS
 LAKE STAGES =     136.248
 ALL LAKES CONVERGED TO STEADY-STATE AFTER   2  ITERATIONS
 LAKE STAGES =     136.500
 ALL LAKES CONVERGED TO STEADY-STATE AFTER   2  ITERATIONS
 LAKE STAGES =     136.724
 ALL LAKES CONVERGED TO STEADY-STATE AFTER   2  ITERATIONS
 LAKE STAGES =     136.986
 ALL LAKES CONVERGED TO STEADY-STATE AFTER   2  ITERATIONS
 LAKE STAGES =     137.102
 ALL LAKES CONVERGED TO STEADY-STATE AFTER   2  ITERATIONS
 LAKE STAGES =     137.360
 ALL LAKES CONVERGED TO STEADY-STATE AFTER   2  ITERATIONS
 LAKE STAGES =     137.587
 ALL LAKES CONVERGED TO STEADY-STATE AFTER   2  ITERATIONS
 LAKE STAGES =     137.822
 ALL LAKES CONVERGED TO STEADY-STATE AFTER   2  ITERATIONS
 LAKE STAGES =     137.955
 ALL LAKES CONVERGED TO STEADY-STATE AFTER   2  ITERATIONS
 LAKE STAGES =     138.195
 ALL LAKES CONVERGED TO STEADY-STATE AFTER   2  ITERATIONS
 LAKE STAGES =     138.286
 ALL LAKES CONVERGED TO STEADY-STATE AFTER   2  ITERATIONS
 LAKE STAGES =     138.497
 ALL LAKES CONVERGED TO STEADY-STATE AFTER   2  ITERATIONS
 LAKE STAGES =     138.684
 ALL LAKES CONVERGED TO STEADY-STATE AFTER   2  ITERATIONS
 LAKE STAGES =     138.904
 ALL LAKES CONVERGED TO STEADY-STATE AFTER   2  ITERATIONS
 LAKE STAGES =     139.000
 ALL LAKES CONVERGED TO STEADY-STATE AFTER   2  ITERATIONS
 LAKE STAGES =     139.216
 ALL LAKES CONVERGED TO STEADY-STATE AFTER   2  ITERATIONS
 LAKE STAGES =     139.406
 ALL LAKES CONVERGED TO STEADY-STATE AFTER   2  ITERATIONS
 LAKE STAGES =     139.602
 ALL LAKES CONVERGED TO STEADY-STATE AFTER   2  ITERATIONS
 LAKE STAGES =     139.713
 ALL LAKES CONVERGED TO STEADY-STATE AFTER   2  ITERATIONS
 LAKE STAGES =     139.914
 ALL LAKES CONVERGED TO STEADY-STATE AFTER   2  ITERATIONS
 LAKE STAGES =     139.990
 ALL LAKES CONVERGED TO STEADY-STATE AFTER   2  ITERATIONS
 LAKE STAGES =     140.166
 ALL LAKES CONVERGED TO STEADY-STATE AFTER   2  ITERATIONS
 LAKE STAGES =     140.322
 ALL LAKES CONVERGED TO STEADY-STATE AFTER   2  ITERATIONS
 LAKE STAGES =     140.505
 ALL LAKES CONVERGED TO STEADY-STATE AFTER   2  ITERATIONS
 LAKE STAGES =     140.586
 ALL LAKES CONVERGED TO STEADY-STATE AFTER   2  ITERATIONS
 LAKE STAGES =     140.766
 ALL LAKES CONVERGED TO STEADY-STATE AFTER   2  ITERATIONS
 LAKE STAGES =     140.924
 ALL LAKES CONVERGED TO STEADY-STATE AFTER   2  ITERATIONS
 LAKE STAGES =     141.088
 ALL LAKES CONVERGED TO STEADY-STATE AFTER   2  ITERATIONS
 LAKE STAGES =     141.181
 ALL LAKES CONVERGED TO STEADY-STATE AFTER   2  ITERATIONS
 LAKE STAGES =     141.348
 ALL LAKES CONVERGED TO STEADY-STATE AFTER   2  ITERATIONS
 LAKE STAGES =     141.411
 ALL LAKES CONVERGED TO STEADY-STATE AFTER   2  ITERATIONS
 LAKE STAGES =     141.558
 ALL LAKES CONVERGED TO STEADY-STATE AFTER   2  ITERATIONS
 LAKE STAGES =     141.688
 ALL LAKES CONVERGED TO STEADY-STATE AFTER   2  ITERATIONS
 LAKE STAGES =     141.840
 ALL LAKES CONVERGED TO STEADY-STATE AFTER   2  ITERATIONS
 LAKE STAGES =     141.908
 ALL LAKES CONVERGED TO STEADY-STATE AFTER   2  ITERATIONS
 LAKE STAGES =     142.058
 ALL LAKES CONVERGED TO STEADY-STATE AFTER   2  ITERATIONS
 LAKE STAGES =     142.189
 ALL LAKES CONVERGED TO STEADY-STATE AFTER   2  ITERATIONS
 LAKE STAGES =     142.325
 ALL LAKES CONVERGED TO STEADY-STATE AFTER   2  ITERATIONS
 LAKE STAGES =     142.402
 ALL LAKES CONVERGED TO STEADY-STATE AFTER   2  ITERATIONS
 LAKE STAGES =     142.541
 ALL LAKES CONVERGED TO STEADY-STATE AFTER   2  ITERATIONS
 LAKE STAGES =     142.594
 ALL LAKES CONVERGED TO STEADY-STATE AFTER   2  ITERATIONS
 LAKE STAGES =     142.716
 ALL LAKES CONVERGED TO STEADY-STATE AFTER   2  ITERATIONS
 LAKE STAGES =     142.824
 ALL LAKES CONVERGED TO STEADY-STATE AFTER   2  ITERATIONS
 LAKE STAGES =     142.951
 ALL LAKES CONVERGED TO STEADY-STATE AFTER   2  ITERATIONS
 LAKE STAGES =     143.007
 ALL LAKES CONVERGED TO STEADY-STATE AFTER   2  ITERATIONS
 LAKE STAGES =     143.132
 ALL LAKES CONVERGED TO STEADY-STATE AFTER   2  ITERATIONS
 LAKE STAGES =     143.241
 ALL LAKES CONVERGED TO STEADY-STATE AFTER   2  ITERATIONS
 LAKE STAGES =     143.354
 ALL LAKES CONVERGED TO STEADY-STATE AFTER   2  ITERATIONS
 LAKE STAGES =     143.418
 ALL LAKES CONVERGED TO STEADY-STATE AFTER   2  ITERATIONS
 LAKE STAGES =     143.533
 ALL LAKES CONVERGED TO STEADY-STATE AFTER   2  ITERATIONS
 LAKE STAGES =     143.577
 ALL LAKES CONVERGED TO STEADY-STATE AFTER   2  ITERATIONS
 LAKE STAGES =     143.679
 ALL LAKES CONVERGED TO STEADY-STATE AFTER   2  ITERATIONS
 LAKE STAGES =     143.769
 ALL LAKES CONVERGED TO STEADY-STATE AFTER   2  ITERATIONS
 LAKE STAGES =     143.874
 ALL LAKES CONVERGED TO STEADY-STATE AFTER   2  ITERATIONS
 LAKE STAGES =     143.920
 ALL LAKES CONVERGED TO STEADY-STATE AFTER   2  ITERATIONS
 LAKE STAGES =     144.023
 ALL LAKES CONVERGED TO STEADY-STATE AFTER   2  ITERATIONS
 LAKE STAGES =     144.114
 ALL LAKES CONVERGED TO STEADY-STATE AFTER   2  ITERATIONS
 LAKE STAGES =     144.208
 ALL LAKES CONVERGED TO STEADY-STATE AFTER   2  ITERATIONS
 LAKE STAGES =     144.261
 ALL LAKES CONVERGED TO STEADY-STATE AFTER   2  ITERATIONS
 LAKE STAGES =     144.357
 ALL LAKES CONVERGED TO STEADY-STATE AFTER   2  ITERATIONS
 LAKE STAGES =     144.393
 ALL LAKES CONVERGED TO STEADY-STATE AFTER   2  ITERATIONS
 LAKE STAGES =     144.477
 ALL LAKES CONVERGED TO STEADY-STATE AFTER   2  ITERATIONS
 LAKE STAGES =     144.552
 ALL LAKES CONVERGED TO STEADY-STATE AFTER   2  ITERATIONS
 LAKE STAGES =     144.639
 ALL LAKES CONVERGED TO STEADY-STATE AFTER   2  ITERATIONS
 LAKE STAGES =     144.677
 ALL LAKES CONVERGED TO STEADY-STATE AFTER   2  ITERATIONS
 LAKE STAGES =     144.763
 ALL LAKES CONVERGED TO STEADY-STATE AFTER   2  ITERATIONS
 LAKE STAGES =     144.838
 ALL LAKES CONVERGED TO STEADY-STATE AFTER   2  ITERATIONS
 LAKE STAGES =     144.916
 ALL LAKES CONVERGED TO STEADY-STATE AFTER   2  ITERATIONS
 LAKE STAGES =     144.960
 ALL LAKES CONVERGED TO STEADY-STATE AFTER   2  ITERATIONS
 LAKE STAGES =     145.039
 ALL LAKES CONVERGED TO STEADY-STATE AFTER   2  ITERATIONS
 LAKE STAGES =     145.070
 ALL LAKES CONVERGED TO STEADY-STATE AFTER   2  ITERATIONS
 LAKE STAGES =     145.139
 ALL LAKES CONVERGED TO STEADY-STATE AFTER   2  ITERATIONS
 LAKE STAGES =     145.201
 ALL LAKES CONVERGED TO STEADY-STATE AFTER   2  ITERATIONS
 LAKE STAGES =     145.273
 ALL LAKES CONVERGED TO STEADY-STATE AFTER   2  ITERATIONS
 LAKE STAGES =     145.305
 ALL LAKES CONVERGED TO STEADY-STATE AFTER   2  ITERATIONS
 LAKE STAGES =     145.376
 ALL LAKES CONVERGED TO STEADY-STATE AFTER   2  ITERATIONS
 LAKE STAGES =     145.438
 ALL LAKES CONVERGED TO STEADY-STATE AFTER   2  ITERATIONS
 LAKE STAGES =     145.503
 ALL LAKES CONVERGED TO STEADY-STATE AFTER   2  ITERATIONS
 LAKE STAGES =     145.539
 ALL LAKES CONVERGED TO STEADY-STATE AFTER   2  ITERATIONS
 LAKE STAGES =     145.605
 ALL LAKES CONVERGED TO STEADY-STATE AFTER   2  ITERATIONS
 LAKE STAGES =     145.630
 ALL LAKES CONVERGED TO STEADY-STATE AFTER   2  ITERATIONS
 LAKE STAGES =     145.687
 ALL LAKES CONVERGED TO STEADY-STATE AFTER   2  ITERATIONS
 LAKE STAGES =     145.738
 ALL LAKES CONVERGED TO STEADY-STATE AFTER   2  ITERATIONS
 LAKE STAGES =     145.798
 ALL LAKES CONVERGED TO STEADY-STATE AFTER   2  ITERATIONS
 LAKE STAGES =     145.824
 ALL LAKES CONVERGED TO STEADY-STATE AFTER   2  ITERATIONS
 LAKE STAGES =     145.883
 ALL LAKES CONVERGED TO STEADY-STATE AFTER   2  ITERATIONS
 LAKE STAGES =     145.935
 ALL LAKES CONVERGED TO STEADY-STATE AFTER   2  ITERATIONS
 LAKE STAGES =     145.988
 ALL LAKES CONVERGED TO STEADY-STATE AFTER   2  ITERATIONS
 LAKE STAGES =     146.018
 ALL LAKES CONVERGED TO STEADY-STATE AFTER   2  ITERATIONS
 LAKE STAGES =     146.072
 ALL LAKES CONVERGED TO STEADY-STATE AFTER   2  ITERATIONS
 LAKE STAGES =     146.093
 ALL LAKES CONVERGED TO STEADY-STATE AFTER   2  ITERATIONS
 LAKE STAGES =     146.141
 ALL LAKES CONVERGED TO STEADY-STATE AFTER   2  ITERATIONS
 LAKE STAGES =     146.183
 ALL LAKES CONVERGED TO STEADY-STATE AFTER   2  ITERATIONS
 LAKE STAGES =     146.232
 ALL LAKES CONVERGED TO STEADY-STATE AFTER   2  ITERATIONS
 LAKE STAGES =     146.254
 ALL LAKES CONVERGED TO STEADY-STATE AFTER   2  ITERATIONS
 LAKE STAGES =     146.303
 ALL LAKES CONVERGED TO STEADY-STATE AFTER   2  ITERATIONS
 LAKE STAGES =     146.345
 ALL LAKES CONVERGED TO STEADY-STATE AFTER   2  ITERATIONS
 LAKE STAGES =     146.389
 ALL LAKES CONVERGED TO STEADY-STATE AFTER   2  ITERATIONS
 LAKE STAGES =     146.414
 ALL LAKES CONVERGED TO STEADY-STATE AFTER   2  ITERATIONS
 LAKE STAGES =     146.459
 ALL LAKES CONVERGED TO STEADY-STATE AFTER   2  ITERATIONS
 LAKE STAGES =     146.476
 ALL LAKES CONVERGED TO STEADY-STATE AFTER   2  ITERATIONS
 LAKE STAGES =     146.516
 ALL LAKES CONVERGED TO STEADY-STATE AFTER   2  ITERATIONS
 LAKE STAGES =     146.550
 ALL LAKES CONVERGED TO STEADY-STATE AFTER   2  ITERATIONS
 LAKE STAGES =     146.591
 ALL LAKES CONVERGED TO STEADY-STATE AFTER   2  ITERATIONS
 LAKE STAGES =     146.609
 ALL LAKES CONVERGED TO STEADY-STATE AFTER   2  ITERATIONS
 LAKE STAGES =     146.649
 ALL LAKES CONVERGED TO STEADY-STATE AFTER   2  ITERATIONS
 LAKE STAGES =     146.685
 ALL LAKES CONVERGED TO STEADY-STATE AFTER   2  ITERATIONS
 LAKE STAGES =     146.721
 ALL LAKES CONVERGED TO STEADY-STATE AFTER   2  ITERATIONS
 LAKE STAGES =     146.742
 ALL LAKES CONVERGED TO STEADY-STATE AFTER   2  ITERATIONS
 LAKE STAGES =     146.779
 ALL LAKES CONVERGED TO STEADY-STATE AFTER   2  ITERATIONS
 LAKE STAGES =     146.793
 ALL LAKES CONVERGED TO STEADY-STATE AFTER   2  ITERATIONS
 LAKE STAGES =     146.825
 ALL LAKES CONVERGED TO STEADY-STATE AFTER   2  ITERATIONS
 LAKE STAGES =     146.854
 ALL LAKES CONVERGED TO STEADY-STATE AFTER   2  ITERATIONS
 LAKE STAGES =     146.888
 ALL LAKES CONVERGED TO STEADY-STATE AFTER   2  ITERATIONS
 LAKE STAGES =     146.903
 ALL LAKES CONVERGED TO STEADY-STATE AFTER   2  ITERATIONS
 LAKE STAGES =     146.936
 ALL LAKES CONVERGED TO STEADY-STATE AFTER   2  ITERATIONS
 LAKE STAGES =     146.965
 ALL LAKES CONVERGED TO STEADY-STATE AFTER   2  ITERATIONS
 LAKE STAGES =     146.995
 ALL LAKES CONVERGED TO STEADY-STATE AFTER   2  ITERATIONS
 LAKE STAGES =     147.012
 ALL LAKES CONVERGED TO STEADY-STATE AFTER   2  ITERATIONS
 LAKE STAGES =     147.043
 ALL LAKES CONVERGED TO STEADY-STATE AFTER   2  ITERATIONS
 LAKE STAGES =     147.054
 ALL LAKES CONVERGED TO STEADY-STATE AFTER   2  ITERATIONS
 LAKE STAGES =     147.081
 ALL LAKES CONVERGED TO STEADY-STATE AFTER   2  ITERATIONS
 LAKE STAGES =     147.105
 ALL LAKES CONVERGED TO STEADY-STATE AFTER   2  ITERATIONS
 LAKE STAGES =     147.133
 ALL LAKES CONVERGED TO STEADY-STATE AFTER   2  ITERATIONS
 LAKE STAGES =     147.145
 ALL LAKES CONVERGED TO STEADY-STATE AFTER   2  ITERATIONS
 LAKE STAGES =     147.173
 ALL LAKES CONVERGED TO STEADY-STATE AFTER   2  ITERATIONS
 LAKE STAGES =     147.197
 ALL LAKES CONVERGED TO STEADY-STATE AFTER   2  ITERATIONS
 LAKE STAGES =     147.221
 ALL LAKES CONVERGED TO STEADY-STATE AFTER   2  ITERATIONS
 LAKE STAGES =     147.235
 ALL LAKES CONVERGED TO STEADY-STATE AFTER   2  ITERATIONS
 LAKE STAGES =     147.261
 ALL LAKES CONVERGED TO STEADY-STATE AFTER   2  ITERATIONS
 LAKE STAGES =     147.270
 ALL LAKES CONVERGED TO STEADY-STATE AFTER   2  ITERATIONS
 LAKE STAGES =     147.293
 ALL LAKES CONVERGED TO STEADY-STATE AFTER   2  ITERATIONS
 LAKE STAGES =     147.312
 ALL LAKES CONVERGED TO STEADY-STATE AFTER   2  ITERATIONS
 LAKE STAGES =     147.335
 ALL LAKES CONVERGED TO STEADY-STATE AFTER   2  ITERATIONS
 LAKE STAGES =     147.345
 ALL LAKES CONVERGED TO STEADY-STATE AFTER   2  ITERATIONS
 LAKE STAGES =     147.368
 ALL LAKES CONVERGED TO STEADY-STATE AFTER   2  ITERATIONS
 LAKE STAGES =     147.388
 ALL LAKES CONVERGED TO STEADY-STATE AFTER   2  ITERATIONS
 LAKE STAGES =     147.408
 ALL LAKES CONVERGED TO STEADY-STATE AFTER   2  ITERATIONS
 LAKE STAGES =     147.420
 ALL LAKES CONVERGED TO STEADY-STATE AFTER   2  ITERATIONS
 LAKE STAGES =     147.441
 ALL LAKES CONVERGED TO STEADY-STATE AFTER   2  ITERATIONS
 LAKE STAGES =     147.449
 ALL LAKES CONVERGED TO STEADY-STATE AFTER   2  ITERATIONS
 LAKE STAGES =     147.467
 ALL LAKES CONVERGED TO STEADY-STATE AFTER   2  ITERATIONS
 LAKE STAGES =     147.483
 ALL LAKES CONVERGED TO STEADY-STATE AFTER   2  ITERATIONS
 LAKE STAGES =     147.502
 ALL LAKES CONVERGED TO STEADY-STATE AFTER   2  ITERATIONS
 LAKE STAGES =     147.511
 ALL LAKES CONVERGED TO STEADY-STATE AFTER   2  ITERATIONS
 LAKE STAGES =     147.529
 ALL LAKES CONVERGED TO STEADY-STATE AFTER   2  ITERATIONS
 LAKE STAGES =     147.546
 ALL LAKES CONVERGED TO STEADY-STATE AFTER   2  ITERATIONS
 LAKE STAGES =     147.563
 ALL LAKES CONVERGED TO STEADY-STATE AFTER   2  ITERATIONS
 LAKE STAGES =     147.572
 ALL LAKES CONVERGED TO STEADY-STATE AFTER   2  ITERATIONS
 LAKE STAGES =     147.589
 ALL LAKES CONVERGED TO STEADY-STATE AFTER   2  ITERATIONS
 LAKE STAGES =     147.596
 ALL LAKES CONVERGED TO STEADY-STATE AFTER   2  ITERATIONS
 LAKE STAGES =     147.611
 ALL LAKES CONVERGED TO STEADY-STATE AFTER   2  ITERATIONS
 LAKE STAGES =     147.624
 ALL LAKES CONVERGED TO STEADY-STATE AFTER   2  ITERATIONS
 LAKE STAGES =     147.640
 ALL LAKES CONVERGED TO STEADY-STATE AFTER   2  ITERATIONS
 LAKE STAGES =     147.647
 ALL LAKES CONVERGED TO STEADY-STATE AFTER   2  ITERATIONS
 LAKE STAGES =     147.662
 ALL LAKES CONVERGED TO STEADY-STATE AFTER   2  ITERATIONS
 LAKE STAGES =     147.676
 ALL LAKES CONVERGED TO STEADY-STATE AFTER   2  ITERATIONS
 LAKE STAGES =     147.690
 ALL LAKES CONVERGED TO STEADY-STATE AFTER   2  ITERATIONS
 LAKE STAGES =     147.698
 ALL LAKES CONVERGED TO STEADY-STATE AFTER   2  ITERATIONS
 LAKE STAGES =     147.712
 ALL LAKES CONVERGED TO STEADY-STATE AFTER   2  ITERATIONS
 LAKE STAGES =     147.717
 ALL LAKES CONVERGED TO STEADY-STATE AFTER   2  ITERATIONS
 LAKE STAGES =     147.730
 ALL LAKES CONVERGED TO STEADY-STATE AFTER   2  ITERATIONS
 LAKE STAGES =     147.741
 ALL LAKES CONVERGED TO STEADY-STATE AFTER   2  ITERATIONS
 LAKE STAGES =     147.754
 ALL LAKES CONVERGED TO STEADY-STATE AFTER   2  ITERATIONS
 LAKE STAGES =     147.759
 ALL LAKES CONVERGED TO STEADY-STATE AFTER   2  ITERATIONS
 LAKE STAGES =     147.772
 ALL LAKES CONVERGED TO STEADY-STATE AFTER   2  ITERATIONS
 LAKE STAGES =     147.783
 ALL LAKES CONVERGED TO STEADY-STATE AFTER   2  ITERATIONS
 LAKE STAGES =     147.795
 ALL LAKES CONVERGED TO STEADY-STATE AFTER   2  ITERATIONS
 LAKE STAGES =     147.801
 ALL LAKES CONVERGED TO STEADY-STATE AFTER   2  ITERATIONS
 LAKE STAGES =     147.813
 ALL LAKES CONVERGED TO STEADY-STATE AFTER   2  ITERATIONS
 LAKE STAGES =     147.817
 ALL LAKES CONVERGED TO STEADY-STATE AFTER   2  ITERATIONS
 LAKE STAGES =     147.828
 ALL LAKES CONVERGED TO STEADY-STATE AFTER   2  ITERATIONS
 LAKE STAGES =     147.837
 ALL LAKES CONVERGED TO STEADY-STATE AFTER   2  ITERATIONS
 LAKE STAGES =     147.848
 ALL LAKES CONVERGED TO STEADY-STATE AFTER   2  ITERATIONS
 LAKE STAGES =     147.852
 ALL LAKES CONVERGED TO STEADY-STATE AFTER   2  ITERATIONS
 LAKE STAGES =     147.863
 ALL LAKES CONVERGED TO STEADY-STATE AFTER   2  ITERATIONS
 LAKE STAGES =     147.872
 ALL LAKES CONVERGED TO STEADY-STATE AFTER   2  ITERATIONS
 LAKE STAGES =     147.881
 ALL LAKES CONVERGED TO STEADY-STATE AFTER   2  ITERATIONS
 LAKE STAGES =     147.887
 ALL LAKES CONVERGED TO STEADY-STATE AFTER   2  ITERATIONS
 LAKE STAGES =     147.896
 ALL LAKES CONVERGED TO STEADY-STATE AFTER   2  ITERATIONS
 LAKE STAGES =     147.900
 ALL LAKES CONVERGED TO STEADY-STATE AFTER   2  ITERATIONS
 LAKE STAGES =     147.909
 ALL LAKES CONVERGED TO STEADY-STATE AFTER   2  ITERATIONS
 LAKE STAGES =     147.916
 ALL LAKES CONVERGED TO STEADY-STATE AFTER   2  ITERATIONS
 LAKE STAGES =     147.925
 ALL LAKES CONVERGED TO STEADY-STATE AFTER   2  ITERATIONS
 LAKE STAGES =     147.929
 ALL LAKES CONVERGED TO STEADY-STATE AFTER   2  ITERATIONS
 LAKE STAGES =     147.937
 ALL LAKES CONVERGED TO STEADY-STATE AFTER   2  ITERATIONS
 LAKE STAGES =     147.945
 ALL LAKES CONVERGED TO STEADY-STATE AFTER   2  ITERATIONS
 LAKE STAGES =     147.953
 ALL LAKES CONVERGED TO STEADY-STATE AFTER   2  ITERATIONS
 LAKE STAGES =     147.957
 ALL LAKES CONVERGED TO STEADY-STATE AFTER   2  ITERATIONS
 LAKE STAGES =     147.965
 ALL LAKES CONVERGED TO STEADY-STATE AFTER   2  ITERATIONS
 LAKE STAGES =     147.968
 ALL LAKES CONVERGED TO STEADY-STATE AFTER   2  ITERATIONS
 LAKE STAGES =     147.975
 ALL LAKES CONVERGED TO STEADY-STATE AFTER   2  ITERATIONS
 LAKE STAGES =     147.981
 ALL LAKES CONVERGED TO STEADY-STATE AFTER   2  ITERATIONS
 LAKE STAGES =     147.989
 ALL LAKES CONVERGED TO STEADY-STATE AFTER   2  ITERATIONS
 LAKE STAGES =     147.992
 ALL LAKES CONVERGED TO STEADY-STATE AFTER   2  ITERATIONS
 LAKE STAGES =     147.999
 ALL LAKES CONVERGED TO STEADY-STATE AFTER   2  ITERATIONS
 LAKE STAGES =     148.005
 ALL LAKES CONVERGED TO STEADY-STATE AFTER   2  ITERATIONS
 LAKE STAGES =     148.012
 ALL LAKES CONVERGED TO STEADY-STATE AFTER   2  ITERATIONS
 LAKE STAGES =     148.015
 ALL LAKES CONVERGED TO STEADY-STATE AFTER   2  ITERATIONS
 LAKE STAGES =     148.022
 ALL LAKES CONVERGED TO STEADY-STATE AFTER   2  ITERATIONS
 LAKE STAGES =     148.024
 ALL LAKES CONVERGED TO STEADY-STATE AFTER   2  ITERATIONS
 LAKE STAGES =     148.030
[...]
  (  2,  7,  7) (  5, 10,  8) (  3,  8, 10) (  3, 10,  8) (  2,  8, 11)
     0.6120        0.4385        0.5571        0.4352        0.6211    
  (  2,  7,  7) (  5,  9,  9) (  5, 10,  8) (  3,  8, 10) (  3, 10,  8)
     0.4165        0.4160        0.3960        0.5804        0.4000    
  (  2,  7,  7) (  5, 10,  8) (  3,  8, 10) (  3, 10,  8) (  2,  8, 11)
     0.5186        0.3713        0.4715        0.3680        0.5251    
  (  2,  7,  7) (  5,  9,  9) (  5, 10,  8) (  3,  8, 10) (  3, 10,  8)
     0.3516        0.3513        0.3342        0.4898        0.3374    
  (  2,  7,  7) (  5, 10,  8) (  3,  8, 10) (  3, 10,  8) (  2,  8, 11)
     0.4374        0.3130        0.3973        0.3098        0.4421    
  (  2,  7,  7) (  5,  9,  9) (  5, 10,  8) (  3,  8, 10) (  3, 10,  8)
     0.2956        0.2955        0.2809        0.4116        0.2836    
  (  2,  7,  7) (  5, 10,  8) (  3,  8, 10) (  3, 10,  8) (  2,  8, 11)
     0.3675        0.2629        0.3335        0.2600        0.3710    
  (  2,  7,  7) (  5,  9,  9) (  5, 10,  8) (  3,  8, 10) (  3, 10,  8)
     0.2478        0.2477        0.2353        0.3449        0.2376    
  (  2,  7,  7) (  5, 10,  8) (  3,  8, 10) (  3, 10,  8) (  2,  8, 11)
     0.3078        0.2201        0.2792        0.2175        0.3103    
  (  2,  7,  7) (  5,  9,  9) (  5, 10,  8) (  3,  8, 10) (  3, 10,  8)
     0.2071        0.2070        0.1966        0.2881        0.1985    
  (  2,  7,  7) (  5, 10,  8) (  3,  8, 10) (  3, 10,  8) (  2,  8, 11)
     0.2571        0.1838        0.2331        0.1815        0.2589    
  (  2,  7,  7) (  5,  9,  9) (  5, 10,  8) (  3,  8, 10) (  3, 10,  8)
     0.1726        0.1726        0.1639        0.2402        0.1654    
  (  2,  7,  7) (  5, 10,  8) (  3,  8, 10) (  3, 10,  8) (  2,  8, 11)
     0.2143        0.1531        0.1941        0.1511        0.2156    
  (  2,  7,  7) (  5,  9,  9) (  5, 10,  8) (  3,  8, 10) (  3, 10,  8)
     0.1437        0.1437        0.1364        0.1998        0.1376    
  (  2,  7,  7) (  5, 10,  8) (  3,  8, 10) (  3, 10,  8) (  2,  8, 11)
     0.1783        0.1273        0.1614        0.1256        0.1792    
  (  2,  7,  7) (  5,  9,  9) (  5, 10,  8) (  3,  8, 10) (  3, 10,  8)
     0.1194        0.1194        0.1133        0.1660        0.1143    
  (  2,  7,  7) (  5, 10,  8) (  3,  8, 10) (  3, 10,  8) (  2,  8, 11)
     0.1481        0.1057        0.1340        0.1043        0.1488    
  (  2,  7,  7) (  5,  9,  9) (  5, 10,  8) (  3,  8, 10) (  3, 10,  8)
     0.9902E-01    0.9905E-01    0.9398E-01    0.1377        0.9481E-01
  (  2,  7,  7) (  5, 10,  8) (  3,  8, 10) (  3, 10,  8) (  2,  8, 11)
     0.1228        0.8770E-01    0.1111        0.8643E-01    0.1233    
  (  2,  7,  7) (  5,  9,  9) (  5, 10,  8) (  3,  8, 10) (  3, 10,  8)
     0.8207E-01    0.8210E-01    0.7787E-01    0.1141        0.7857E-01
  (  2,  7,  7) (  5, 10,  8) (  3,  8, 10) (  3, 10,  8) (  2,  8, 11)
     0.1018        0.7266E-01    0.9206E-01    0.7158E-01    0.1021    
  (  2,  7,  7) (  5,  9,  9) (  5, 10,  8) (  3,  8, 10) (  3, 10,  8)
     0.6795E-01    0.6798E-01    0.6447E-01    0.9446E-01    0.6504E-01
  (  2,  7,  7) (  5, 10,  8) (  3,  8, 10) (  3, 10,  8) (  2,  8, 11)
     0.8424E-01    0.6013E-01    0.7620E-01    0.5923E-01    0.8452E-01
  (  2,  7,  7) (  5,  9,  9) (  5, 10,  8) (  3,  8, 10) (  3, 10,  8)
     0.5622E-01    0.5624E-01    0.5334E-01    0.7814E-01    0.5382E-01
  (  2,  7,  7) (  5, 10,  8) (  3,  8, 10) (  3, 10,  8) (  2,  8, 11)
     0.6968E-01    0.4975E-01    0.6303E-01    0.4899E-01    0.6991E-01
  (  2,  7,  7) (  5,  9,  9) (  5, 10,  8) (  3,  8, 10) (  3, 10,  8)
     0.4648E-01    0.4650E-01    0.4408E-01    0.6461E-01    0.4448E-01
  (  2,  7,  7) (  5, 10,  8) (  3,  8, 10) (  3, 10,  8) (  2,  8, 11)
     0.5760E-01    0.4112E-01    0.5208E-01    0.4049E-01    0.5778E-01
  (  2,  7,  7) (  5,  9,  9) (  5, 10,  8) (  3,  8, 10) (  3, 10,  8)
     0.3842E-01    0.3843E-01    0.3643E-01    0.5337E-01    0.3674E-01
  (  2,  7,  7) (  5, 10,  8) (  3,  8, 10) (  3, 10,  8) (  2,  8, 11)
     0.4760E-01    0.3397E-01    0.4304E-01    0.3346E-01    0.4774E-01
  (  2,  7,  7) (  5,  9,  9) (  5, 10,  8) (  3,  8, 10) (  3, 10,  8)
     0.3172E-01    0.3175E-01    0.3010E-01    0.4409E-01    0.3035E-01
  (  2,  7,  7) (  5, 10,  8) (  3,  8, 10) (  3, 10,  8) (  2,  8, 11)
     0.3931E-01    0.2806E-01    0.3553E-01    0.2763E-01    0.3943E-01
  (  2,  7,  7) (  5,  9,  9) (  5, 10,  8) (  3,  8, 10) (  3, 10,  8)
     0.2619E-01    0.2622E-01    0.2486E-01    0.3640E-01    0.2506E-01
  (  2,  7,  7) (  5, 10,  8) (  3,  8, 10) (  3, 10,  8) (  2,  8, 11)
     0.3247E-01    0.2317E-01    0.2934E-01    0.2281E-01    0.3255E-01
  (  2,  7,  7) (  5,  9,  9) (  5, 10,  8) (  3,  8, 10) (  3, 10,  8)
     0.2162E-01    0.2163E-01    0.2051E-01    0.3005E-01    0.2068E-01
  (  2,  7,  7) (  5, 10,  8) (  3,  8, 10) (  3, 10,  8) (  2,  8, 11)
     0.2679E-01    0.1912E-01    0.2422E-01    0.1882E-01    0.2685E-01
  (  2,  7,  7) (  5,  9,  9) (  5, 10,  8) (  3,  8, 10) (  3, 10,  8)
     0.1784E-01    0.1787E-01    0.1693E-01    0.2479E-01    0.1708E-01
  (  2,  7,  7) (  5, 10,  8) (  3,  8, 10) (  3, 10,  8) (  2,  8, 11)
     0.2211E-01    0.1578E-01    0.1998E-01    0.1553E-01    0.2217E-01
  (  2,  7,  7) (  5,  9,  9) (  5, 10,  8) (  3,  8, 10) (  3, 10,  8)
     0.1472E-01    0.1474E-01    0.1398E-01    0.2046E-01    0.1408E-01
  (  2,  7,  7) (  5, 10,  8) (  3,  8, 10) (  3, 10,  8) (  2,  8, 11)
     0.1824E-01    0.1302E-01    0.1649E-01    0.1281E-01    0.1828E-01
  (  2,  7,  7) (  5,  9,  9) (  5, 10,  8) (  3,  8, 10) (  3, 10,  8)
     0.1215E-01    0.1215E-01    0.1151E-01    0.1687E-01    0.1163E-01
  (  2,  7,  7) (  5, 10,  8) (  3,  8, 10) (  3, 10,  8) (  2,  8, 11)
     0.1505E-01    0.1073E-01    0.1361E-01    0.1056E-01    0.1508E-01
  (  2,  7,  7) (  5,  9,  9) (  5, 10,  8) (  3,  8, 10) (  3, 10,  8)
     0.1002E-01    0.1003E-01    0.9500E-02    0.1392E-01    0.9580E-02
  (  2,  7,  7) (  5, 10,  8) (  3,  8, 10) (  3, 10,  8) (  2,  8, 11)
     0.1241E-01    0.8855E-02    0.1122E-01    0.8723E-02    0.1244E-01
  (  2,  7,  7) (  5,  9,  9) (  5, 10,  8) (  3,  8, 10) (  3, 10,  8)
     0.8268E-02    0.8273E-02    0.7842E-02    0.1148E-01    0.7907E-02
  (  2,  7,  7) (  5, 10,  8) (  3,  8, 10) (  3, 10,  8) (  2,  8, 11)
     0.1023E-01    0.7304E-02    0.9258E-02    0.7180E-02    0.1025E-01
  (  2,  7,  7) (  5,  9,  9) (  5, 10,  8) (  3,  8, 10) (  3, 10,  8)
     0.6809E-02    0.6818E-02    0.6459E-02    0.9461E-02    0.6513E-02
  (  2,  7,  7) (  5, 10,  8) (  3,  8, 10) (  3, 10,  8) (  2,  8, 11)
     0.8447E-02    0.6021E-02    0.7635E-02    0.5929E-02    0.8459E-02
  (  2,  7,  7) (  5,  9,  9) (  5, 10,  8) (  3,  8, 10) (  3, 10,  8)
     0.5608E-02    0.5618E-02    0.5330E-02    0.7813E-02    0.5378E-02
  (  2,  7,  7) (  5, 10,  8) (  3,  8, 10) (  3, 10,  8) (  2,  8, 11)
     0.6964E-02    0.4969E-02    0.6302E-02    0.4880E-02    0.6971E-02
  (  2,  7,  7) (  5,  9,  9) (  5, 10,  8) (  3,  8, 10) (  3, 10,  8)
     0.4635E-02    0.4631E-02    0.4394E-02    0.6431E-02    0.4431E-02
  (  2,  7,  7) (  5, 10,  8) (  3,  8, 10) (  3, 10,  8) (  2,  8, 11)
     0.5735E-02    0.4098E-02    0.5186E-02    0.4033E-02    0.5752E-02
  (  2,  7,  7) (  5,  9,  9) (  5, 10,  8) (  3,  8, 10) (  3, 10,  8)
     0.3819E-02    0.3820E-02    0.3621E-02    0.5307E-02    0.3655E-02
  (  2,  7,  7) (  5, 10,  8) (  3,  8, 10) (  3, 10,  8) (  2,  8, 11)
     0.4734E-02    0.3376E-02    0.4275E-02    0.3318E-02    0.4745E-02
  (  2,  7,  7) (  5,  9,  9) (  5, 10,  8) (  3,  8, 10) (  3, 10,  8)
     0.3147E-02    0.3153E-02    0.2991E-02    0.4373E-02    0.3018E-02
  (  2,  7,  7) (  5, 10,  8) (  3,  8, 10) (  3, 10,  8) (  2,  8, 11)
     0.3911E-02    0.2792E-02    0.3524E-02    0.2743E-02    0.3915E-02
  (  2,  7,  7) (  5,  9,  9) (  5, 10,  8) (  3,  8, 10) (  3, 10,  8)
     0.2595E-02    0.2598E-02    0.2461E-02    0.3611E-02    0.2490E-02
  (  2,  7,  7) (  5, 10,  8) (  3,  8, 10) (  3, 10,  8) (  2,  8, 11)
     0.3213E-02    0.2293E-02    0.2918E-02    0.2250E-02    0.3216E-02
  (  2,  7,  7) (  5,  9,  9) (  5, 10,  8) (  2,  8, 11) (  3, 10,  8)
     0.2145E-02    0.2143E-02    0.2034E-02    0.2982E-02    0.2052E-02
  (  2,  7,  7) (  5, 10,  8) (  3,  8, 10) (  3, 10,  8) (  2,  8, 11)
     0.2646E-02    0.1899E-02    0.2388E-02    0.1865E-02    0.2656E-02
  (  2,  7,  7) (  5,  9,  9) (  5, 10,  8) (  3,  8, 10) (  3, 10,  8)
     0.1770E-02    0.1766E-02    0.1678E-02    0.2458E-02    0.1693E-02
  (  2,  7,  7) (  5, 10,  8) (  3,  8, 10) (  3, 10,  8) (  2,  8, 11)
     0.2183E-02    0.1560E-02    0.1983E-02    0.1543E-02    0.2187E-02
  (  2,  7,  7) (  5,  9,  9) (  5, 10,  8) (  3,  8, 10) (  3, 10,  8)
     0.1458E-02    0.1455E-02    0.1383E-02    0.2030E-02    0.1385E-02
  (  2,  7,  7) (  5, 10,  8) (  3,  8, 10) (  4, 10,  8) (  3,  8, 10)
     0.1795E-02    0.1294E-02    0.1617E-02    0.1264E-02    0.1808E-02
  (  2,  7,  7) (  5,  9,  9) (  5, 10,  8) (  2,  8, 11) (  3, 10,  8)
     0.1196E-02    0.1199E-02    0.1139E-02    0.1667E-02    0.1145E-02
  (  2,  7,  7) (  5, 10,  8) (  3,  8, 10) (  3, 10,  8) (  2,  8, 11)
     0.1492E-02    0.1062E-02    0.1348E-02    0.1049E-02    0.1488E-02
  (  2,  7,  7) (  5,  9,  9) (  5, 10,  8) (  3,  8, 10) (  3, 10,  8)
     0.9919E-03    0.9787E-03    0.9356E-03    0.1372E-02    0.9361E-03
  (  2,  7,  7) (  5, 10,  8) (  3,  8, 10) (  3, 10,  8) (  2,  8, 11)
     0.1219E-02    0.8611E-03    0.1091E-02    0.8672E-03    0.1229E-02
  (  2,  7,  7) (  5,  9,  9) (  5, 10,  8) (  3,  8, 10) (  3, 10,  8)
     0.8244E-03    0.8119E-03    0.7632E-03    0.1135E-02    0.7825E-03
  (  2,  7,  7) (  5, 10,  8) (  3,  8, 10) (  4, 10,  8) (  3,  8, 10)
     0.1019E-02    0.7130E-03    0.9072E-03    0.7165E-03    0.1008E-02
  (  2,  7,  7) (  5,  9,  9) (  5, 10,  8) (  2,  8, 11) (  3, 10,  8)
     0.6710E-03    0.6671E-03    0.6402E-03    0.9230E-03    0.6372E-03
  (  2,  7,  7) (  5, 10,  8) (  3,  8, 10) (  3, 10,  8) (  2,  8, 11)
     0.8220E-03    0.5938E-03    0.7558E-03    0.5872E-03    0.8391E-03
  (  2,  7,  7) (  5,  9,  9) (  5, 10,  8) (  2,  8, 11) (  3, 10,  8)
     0.5541E-03    0.5649E-03    0.5299E-03    0.7717E-03    0.5276E-03
  (  2,  7,  7) (  5, 10,  8) (  2,  9, 11) (  3, 10,  8) (  2,  8, 11)
     0.6810E-03    0.4882E-03    0.6204E-03    0.4838E-03    0.6892E-03
  (  2,  7,  7) (  5,  9,  9) (  5, 10,  8) (  3,  8, 10) (  3, 10,  8)
     0.4651E-03    0.4467E-03    0.4269E-03    0.6285E-03    0.4479E-03
  (  2,  7,  7) (  5, 10,  8) (  3,  8, 10) (  3, 10,  8) (  2,  8, 11)
     0.5674E-03    0.4034E-03    0.5040E-03    0.3931E-03    0.5690E-03
  (  2,  7,  7) (  5,  9,  9) (  5, 10,  8) (  3,  8, 10) (  3, 10,  8)
     0.3795E-03    0.3877E-03    0.3696E-03    0.5234E-03    0.3612E-03
  (  2,  7,  7) (  5, 10,  8) (  2,  9, 11) (  5, 10,  8) (  3,  8, 10)
     0.4722E-03    0.3300E-03    0.4123E-03    0.3326E-03    0.4689E-03
  (  2,  7,  7) (  5,  9,  9) (  5, 10,  8) (  3,  8, 10) (  3, 10,  8)
     0.3029E-03    0.3200E-03    0.2852E-03    0.4303E-03    0.3010E-03
  (  2,  7,  7) (  5, 10,  8) (  3,  8, 10) (  5, 10,  8) (  3,  8, 10)
     0.3768E-03    0.2751E-03    0.3388E-03    0.2721E-03    0.3892E-03
  (  2,  7,  7) (  4,  9,  9) (  5, 10,  8) (  3,  8, 10) (  3, 10,  8)
     0.2535E-03    0.2454E-03    0.2437E-03    0.3618E-03    0.2408E-03
  (  2,  7,  7) (  5, 10,  8) (  3,  8, 10) (  3, 10,  8) (  3,  8, 10)
     0.3122E-03    0.2229E-03    0.2864E-03    0.2117E-03    0.3197E-03
  (  2,  7,  7) (  5,  9,  9) (  5, 10,  8) (  3,  8, 10) (  3, 10,  8)
     0.2044E-03    0.2112E-03    0.2033E-03    0.2848E-03    0.2006E-03
  (  2,  7,  7) (  5,  9,  7) (  3,  8, 10) (  3, 10,  8) (  3,  8, 10)
     0.2647E-03    0.1910E-03    0.2426E-03    0.1814E-03    0.2595E-03
  (  2,  7,  7) (  5,  9,  9) (  5, 10,  8) (  3,  8, 10) (  3, 10,  8)
     0.1750E-03    0.1772E-03    0.1727E-03    0.2477E-03    0.1605E-03
  (  2,  7,  7) (  5, 10,  8) (  3,  8, 10) (  5, 10,  8) (  3,  8, 10)
     0.2075E-03    0.1582E-03    0.1877E-03    0.1512E-03    0.2095E-03
  (  2,  7,  7) (  4,  9,  9) (  5, 10,  8) (  3,  8, 10) (  3, 10,  8)
     0.1458E-03    0.1548E-03    0.1326E-03    0.2007E-03    0.1304E-03
  (  2,  7,  7) (  5, 10,  8) (  3,  8, 10) (  3, 10,  8) (  3,  8, 10)
     0.1792E-03    0.1277E-03    0.1648E-03    0.1292E-03    0.1813E-03
  (  2,  7,  7) (  5,  9,  9) (  5, 10,  8) (  2,  9, 11) (  2, 11,  9)
     0.1158E-03    0.1116E-03    0.1116E-03    0.1615E-03    0.1204E-03
  (  2,  7,  7) (  5, 10,  8) (  3,  8, 10) (  3, 10,  8) (  3,  8, 10)
     0.1511E-03    0.9660E-04
  (  2,  7,  7) (  5,  9,  9)


 HEAD/DRAWDOWN PRINTOUT FLAG = 1     TOTAL BUDGET PRINTOUT FLAG = 1
 CELL-BY-CELL FLOW TERM FLAG = 1

 OUTPUT FLAGS FOR EACH LAYER:
          HEAD    DRAWDOWN  HEAD  DRAWDOWN
 LAYER  PRINTOUT  PRINTOUT  SAVE    SAVE
 -----------------------------------------
    1       0         0       0       0
    2       0         0       0       0
    3       0         0       0       0
    4       0         0       0       0
    5       1         0       0       0


     0  LAKE CELLS ARE DRY.

 PERIOD     1     TIME STEP     1     TIME STEP LENGTH  1.0000E+00
 PERIOD TIME  1.0000E+00     TOTAL SIMULATION TIME  1.0000E+00


                 HYDROLOGIC BUDGET SUMMARIES FOR SIMULATED LAKES
     (ALL FLUID FLUXES ARE VOLUMES ADDED TO THE LAKE DURING PRESENT TIME STEP)
     -------------------------------------------------------------------------
 LAKE   STAGE     PRECIP       EVAP       RUNOFF
   1   148.28  7.2500E+04  6.4375E+04  0.0000E+00

            GROUND WATER            SURFACE WATER
 LAKE    INFLOW     OUTFLOW      INFLOW     OUTFLOW
   1  1.6884E+04  2.4955E+04  0.0000E+00  0.0000E+00

         WATER    CONNECTED LAKE   UPDATED     TIME-STEP          STAGE CHANGE
 LAKE     USE         INFLUX        VOLUME    SURFACE AREA   TIME STEP  CUMULATIVE
   1   0.0000E+00   0.0000E+00   2.8052E+08    6.2500E+06   0.0000E+00  3.8284E+01
 --------------------------------------------------------------------------------



            CUMULATIVE HYDROLOGIC BUDGET SUMMARIES FOR SIMULATED LAKES
     (ALL FLUID FLUXES ARE SUMS OF VOLUMES ADDED TO THE LAKE SINCE INITIAL TIME)
     ---------------------------------------------------------------------------
 LAKE       PRECIP       EVAP       RUNOFF
   1     7.2500E+04  6.4375E+04  0.0000E+00

            GROUND WATER            SURFACE WATER
 LAKE    INFLOW     OUTFLOW      INFLOW     OUTFLOW
   1  1.6884E+04  2.4955E+04  0.0000E+00  0.0000E+00

         WATER    CONNECTED LAKE
 LAKE     USE         INFLUX
   1   0.0000E+00   0.0000E+00
 --------------------------------------------------------------------------------

1
              HEAD IN LAYER   5 AT END OF TIME STEP   1 IN STRESS PERIOD    1
  ---------------------------------------------------------------------------

          1      2      3      4      5      6      7      8      9     10
 .........................................................................
   1   160.0  158.9  157.3  155.8  154.2  152.7  151.5  150.8  150.0  149.2
   2   160.0  158.6  156.7  155.1  153.4  151.9  150.7  149.9  149.1  148.4
   3   160.0  158.4  156.3  154.5  152.8  151.1  150.0  149.2  148.4  147.6
   4   160.0  158.3  156.1  154.2  152.4  150.8  149.6  148.8  148.1  147.3
   5   160.0  158.2  155.9  154.0  152.2  150.5  149.4  148.6  147.9  147.2
   6   160.0  158.2  155.9  153.9  152.1  150.3  149.1  148.5  148.0  147.5
   7   160.0  158.2  155.9  153.8  152.0  150.1  148.4  148.3  148.3  148.3
   8   160.0  158.2  155.8  153.8  151.9  150.0  148.3  148.3  148.3  148.3
   9   160.0  158.2  155.8  153.8  151.9  150.0  148.3  148.3  148.3  148.3
  10   160.0  158.2  155.8  153.8  151.9  150.0  148.3  148.3  148.3  148.3
  11   160.0  158.2  155.9  153.8  152.0  150.1  148.4  148.3  148.3  148.3
  12   160.0  158.2  155.9  153.9  152.1  150.3  149.1  148.5  148.0  147.5
  13   160.0  158.2  155.9  154.0  152.2  150.5  149.4  148.6  147.9  147.2
  14   160.0  158.3  156.1  154.2  152.4  150.8  149.6  148.8  148.1  147.3
  15   160.0  158.4  156.3  154.5  152.8  151.1  150.0  149.2  148.4  147.6
  16   160.0  158.6  156.7  155.1  153.4  151.9  150.7  149.9  149.1  148.4
  17   160.0  158.9  157.3  155.8  154.2  152.7  151.5  150.8  150.0  149.2
1
              HEAD IN LAYER   5 AT END OF TIME STEP   1 IN STRESS PERIOD    1
  ---------------------------------------------------------------------------

         11     12     13     14     15     16     17
 ....................................................
   1   148.5  147.3  145.8  144.2  142.7  141.1  140.0
   2   147.6  146.4  144.9  143.4  141.9  140.6  140.0
   3   146.9  145.7  144.2  142.7  141.4  140.3  140.0
   4   146.5  145.4  143.8  142.4  141.1  140.2  140.0
   5   146.5  145.3  143.7  142.3  141.0  140.1  140.0
   6   146.8  145.5  143.8  142.2  141.0  140.1  140.0
   7   148.2  145.9  143.9  142.3  141.0  140.1  140.0
   8   148.2  146.0  143.9  142.3  141.0  140.1  140.0
   9   148.2  146.0  143.9  142.3  141.0  140.1  140.0
  10   148.2  146.0  143.9  142.3  141.0  140.1  140.0
  11   148.2  145.9  143.9  142.3  141.0  140.1  140.0
  12   146.8  145.5  143.8  142.2  141.0  140.1  140.0
  13   146.5  145.3  143.7  142.3  141.0  140.1  140.0
  14   146.5  145.4  143.8  142.4  141.1  140.2  140.0
  15   146.9  145.7  144.2  142.7  141.4  140.3  140.0
  16   147.6  146.4  144.9  143.4  141.9  140.6  140.0
  17   148.5  147.3  145.8  144.2  142.7  141.1  140.0
1
  VOLUMETRIC BUDGET FOR ENTIRE MODEL AT END OF TIME STEP  1 IN STRESS PERIOD   1
  ------------------------------------------------------------------------------

     CUMULATIVE VOLUMES      L**3       RATES FOR THIS TIME STEP      L**3/T
     ------------------                 ------------------------

           IN:                                      IN:
           ---                                      ---
             STORAGE =           0.0000               STORAGE =           0.0000
       CONSTANT HEAD =      166883.1090         CONSTANT HEAD =      166883.1090
                  ET =           0.0000                    ET =           0.0000
            RECHARGE =     1740000.0000              RECHARGE =     1740000.0000
     SPECIFIED FLOWS =           0.0000       SPECIFIED FLOWS =           0.0000
       LAKE  SEEPAGE =       24954.6348         LAKE  SEEPAGE =       24954.6348

            TOTAL IN =     1931837.7500              TOTAL IN =     1931837.7500

          OUT:                                     OUT:
          ----                                     ----
             STORAGE =           0.0000               STORAGE =           0.0000
       CONSTANT HEAD =        9490.4131         CONSTANT HEAD =        9490.4131
                  ET =     1905448.3800                    ET =     1905448.3800
            RECHARGE =           0.0000              RECHARGE =           0.0000
     SPECIFIED FLOWS =           0.0000       SPECIFIED FLOWS =           0.0000
       LAKE  SEEPAGE =       16884.4922         LAKE  SEEPAGE =       16884.4922

           TOTAL OUT =     1931823.2500             TOTAL OUT =     1931823.2500

            IN - OUT =          14.4639              IN - OUT =          14.4639

 PERCENT DISCREPANCY =           0.00     PERCENT DISCREPANCY =           0.00






          TIME SUMMARY AT END OF TIME STEP   1 IN STRESS PERIOD    1
                    SECONDS     MINUTES      HOURS       DAYS        YEARS
                    -----------------------------------------------------------
   TIME STEP LENGTH  86400.      1440.0      24.000      1.0000     2.73785E-03
 STRESS PERIOD TIME  86400.      1440.0      24.000      1.0000     2.73785E-03
         TOTAL TIME  86400.      1440.0      24.000      1.0000     2.73785E-03
1
