                                  MODFLOW-2000
      U.S. GEOLOGICAL SURVEY MODULAR FINITE-DIFFERENCE GROUND-WATER FLOW MODEL
                           VERSION 1.19.01 03/25/2010


 This model run combines GLOBAL and LIST output into this single file.

 GLOBAL LISTING FILE: l2a_2k.lst
                         UNIT    1

 OPENING l2a_2k_lak1.got
 FILE TYPE:DATA   UNIT   37   STATUS:UNKNOWN
 FORMAT:FORMATTED              ACCESS:SEQUENTIAL          

 OPENING l2a_2k_lak2.got
 FILE TYPE:DATA   UNIT   38   STATUS:UNKNOWN
 FORMAT:FORMATTED              ACCESS:SEQUENTIAL          

 OPENING l2a_2k_seg1e.got
 FILE TYPE:DATA   UNIT   39   STATUS:UNKNOWN
 FORMAT:FORMATTED              ACCESS:SEQUENTIAL          

 OPENING l2a_2k_seg2b.got
 FILE TYPE:DATA   UNIT   40   STATUS:UNKNOWN
 FORMAT:FORMATTED              ACCESS:SEQUENTIAL          

 OPENING l2a_2k_seg2e.got
 FILE TYPE:DATA   UNIT   41   STATUS:UNKNOWN
 FORMAT:FORMATTED              ACCESS:SEQUENTIAL          

 OPENING l2a_2k_seg3b.got
 FILE TYPE:DATA   UNIT   42   STATUS:UNKNOWN
 FORMAT:FORMATTED              ACCESS:SEQUENTIAL          

 OPENING l2a_2k_seg3e.got
 FILE TYPE:DATA   UNIT   43   STATUS:UNKNOWN
 FORMAT:FORMATTED              ACCESS:SEQUENTIAL          
#                                                                                                                                                                                                       
# Input files                                                                                                                                                                                           

 OPENING ../data/l2a_2k.ba6
 FILE TYPE:BAS6   UNIT    7   STATUS:OLD    
 FORMAT:FORMATTED              ACCESS:SEQUENTIAL          

 OPENING ../data/l2a_2k.bc6
 FILE TYPE:BCF6   UNIT   10   STATUS:OLD    
 FORMAT:FORMATTED              ACCESS:SEQUENTIAL          

 OPENING ../data/l2a_2k.evt
 FILE TYPE:EVT   UNIT   11   STATUS:OLD    
 FORMAT:FORMATTED              ACCESS:SEQUENTIAL          

 OPENING ../data/l2a_2k.rch
 FILE TYPE:RCH   UNIT   12   STATUS:OLD    
 FORMAT:FORMATTED              ACCESS:SEQUENTIAL          

 OPENING ../data/l2a_2k.sip
 FILE TYPE:SIP   UNIT   13   STATUS:OLD    
 FORMAT:FORMATTED              ACCESS:SEQUENTIAL          

 OPENING ../data/l2a_2k.sfr
 FILE TYPE:SFR   UNIT   14   STATUS:OLD    
 FORMAT:FORMATTED              ACCESS:SEQUENTIAL          

 OPENING ../data/l2a_2k.fhb
 FILE TYPE:FHB   UNIT   21   STATUS:OLD    
 FORMAT:FORMATTED              ACCESS:SEQUENTIAL          

 OPENING ../data/l2a_2k.lak
 FILE TYPE:LAK   UNIT   16   STATUS:OLD    
 FORMAT:FORMATTED              ACCESS:SEQUENTIAL          

 OPENING ../data/l2a_2k.oc
 FILE TYPE:OC   UNIT   17   STATUS:OLD    
 FORMAT:FORMATTED              ACCESS:SEQUENTIAL          

 OPENING ../data/l2a_2k.dis
 FILE TYPE:DIS   UNIT   15   STATUS:OLD    
 FORMAT:FORMATTED              ACCESS:SEQUENTIAL          

 OPENING ../data/l2a_2k.gag
 FILE TYPE:GAGE   UNIT   33   STATUS:OLD    
 FORMAT:FORMATTED              ACCESS:SEQUENTIAL          


 DISCRETIZATION INPUT DATA READ FROM UNIT   15
    5 LAYERS        27 ROWS        17 COLUMNS
    1 STRESS PERIOD(S) IN SIMULATION
 MODEL TIME UNIT IS DAYS
 MODEL LENGTH UNIT IS UNDEFINED
 THE GROUND-WATER TRANSPORT PROCESS IS INACTIVE

 THE OBSERVATION PROCESS IS INACTIVE
 THE SENSITIVITY PROCESS IS INACTIVE
 THE PARAMETER-ESTIMATION PROCESS IS INACTIVE

 MODE: FORWARD

  Confining bed flag for each layer:
   0   0   0   0   0

      20699  ELEMENTS OF GX ARRAY USED OUT OF      20699
       2295  ELEMENTS OF GZ ARRAY USED OUT OF       2295
       2295  ELEMENTS OF IG ARRAY USED OUT OF       2295



                               DELR
 READING ON UNIT   15 WITH FORMAT: (10F8.0)            
   250.00       1000.0       1000.0       1000.0       1000.0       1000.0       500.00       500.00       500.00       500.00    
   500.00       1000.0       1000.0       1000.0       1000.0       1000.0       250.00    



                               DELC
 READING ON UNIT   15 WITH FORMAT: (10F8.0)            
   250.00       1000.0       1000.0       1000.0       1000.0       1000.0       500.00       500.00       500.00       500.00    
   500.00       1000.0       1000.0       1000.0       1000.0       1000.0       500.00       500.00       500.00       500.00    
   500.00       1000.0       1000.0       1000.0       1000.0       1000.0       250.00    

 TOP ELEVATION OF LAYER 1 =   200.000    

   MODEL LAYER BOTTOM EL. =   107.000     FOR LAYER   1

   MODEL LAYER BOTTOM EL. =   97.0000     FOR LAYER   2

   MODEL LAYER BOTTOM EL. =   87.0000     FOR LAYER   3

   MODEL LAYER BOTTOM EL. =   77.0000     FOR LAYER   4

   MODEL LAYER BOTTOM EL. =   67.0000     FOR LAYER   5


 STRESS PERIOD     LENGTH       TIME STEPS     MULTIPLIER FOR DELT    SS FLAG
 ----------------------------------------------------------------------------
        1         1500.000        200                    1.005         TR

 TRANSIENT SIMULATION




 SIP5 -- STRONGLY IMPLICIT PROCEDURE SOLUTION PACKAGE
                    VERSION 5, 9/1/93 INPUT READ FROM UNIT   13
 MAXIMUM OF 500 ITERATIONS ALLOWED FOR CLOSURE
  5 ITERATION PARAMETERS
       9685 ELEMENTS IN X ARRAY ARE USED BY SIP
       1500 ELEMENTS IN IX ARRAY ARE USED BY SIP

       9685  ELEMENTS OF X ARRAY USED OUT OF       9685
          0  ELEMENTS OF Z ARRAY USED OUT OF          1
       1500  ELEMENTS OF IX ARRAY USED OUT OF       1500
          0  ELEMENTS OF XHS ARRAY USED OUT OF          1



          SOLUTION BY THE STRONGLY IMPLICIT PROCEDURE
          -------------------------------------------
 MAXIMUM ITERATIONS ALLOWED FOR CLOSURE =      500
                 ACCELERATION PARAMETER =     1.0000    
      HEAD CHANGE CRITERION FOR CLOSURE =    0.10000E-03
      SIP HEAD CHANGE PRINTOUT INTERVAL =      999

     CALCULATE ITERATION PARAMETERS FROM MODEL CALCULATED WSEED
 
 #Shows convergence to equilibrium in transient model. ;begin BAS Input          
 #Tests interaction of two lakes and three streams.    ;second comment line      
    5 LAYERS        27 ROWS        17 COLUMNS
    1 STRESS PERIOD(S) IN SIMULATION

 BAS6 -- BASIC PACKAGE, VERSION 6, 1/11/2000 INPUT READ FROM UNIT    7
         25 ELEMENTS IN IR ARRAY ARE USED BY BAS

 BCF6 -- BLOCK-CENTERED FLOW PACKAGE, VERSION 6, 1/11/2000
         INPUT READ FROM UNIT 10
 TRANSIENT SIMULATION
 HEAD AT CELLS THAT CONVERT TO DRY=   0.0000    
 WETTING CAPABILITY IS ACTIVE
 WETTING FACTOR=   1.00000     WETTING ITERATION INTERVAL=   1
 FLAG THAT SPECIFIES THE EQUATION TO USE FOR HEAD AT WETTED CELLS=   0
      LAYER  LAYER-TYPE CODE     INTERBLOCK T
      --------------------------------------------
         1            1          0 -- HARMONIC    
         2            3          0 -- HARMONIC    
         3            3          0 -- HARMONIC    
         4            3          0 -- HARMONIC    
         5            3          0 -- HARMONIC    
      10562 ELEMENTS IN RX ARRAY ARE USED BY BCF

 EVT6 -- EVAPOTRANSPIRATION PACKAGE, VERSION 6, 12/14/2000
         INPUT READ FROM UNIT   11
 No named parameters
 OPTION 1 -- EVAPOTRANSPIRATION FROM TOP LAYER
       1377 ELEMENTS IN RX ARRAY ARE USED BY EVT
        459 ELEMENTS IN IR ARRAY ARE USED BY EVT

 RCH6 -- RECHARGE PACKAGE, VERSION 6, 1/11/2000 INPUT READ FROM UNIT   12
 No named parameters
 OPTION 3 -- RECHARGE TO HIGHEST ACTIVE NODE IN EACH VERTICAL COLUMN
        459 ELEMENTS IN RX ARRAY ARE USED BY RCH
        459 ELEMENTS IN IR ARRAY ARE USED BY RCH
0FHB1 -- SPECIFIED FLOW PACKAGE, VERSION 1,12/3/96 INPUT READ FROM 21
  SPECIFIED FLOW AND HEAD VALUES WILL REMAIN CONSTANT FOR ENTIRE SIMULATION.
 FLOW WILL BE SPECIFIED AT A TOTAL OF    0 CELLS.
 HEAD WILL BE SPECIFIED AT A TOTAL OF  420 CELLS.
 FHB STEADY-STATE OPTION FLAG WILL BE IGNORED,
 AT LEAST ONE STRESS PERIOD IS TRANSIENT.
  0 AUXILIARY VARIABLES FOR SPECIFIED-FLOW CELLS WILL
  BE DEFINED BY FHB FOR USE BY OTHER PACKAGES.
  0 AUXILIARY VARIABLES FOR SPECIFIED-HEAD CELLS WILL
  BE DEFINED BY FHB FOR USE BY OTHER PACKAGES.
      421 ELEMENTS IN RX ARRAY ARE USED FOR FHB1
     1680 ELEMENTS IN IR ARRAY ARE USED FOR FHB1

 SFR2 -- STREAMFLOW ROUTING PACKAGE, VERSION 2.7, 03/16/2009
         INPUT READ FROM UNIT  14


 NUMBER OF STREAM NODES IS   22

 NUMBER OF STREAM SEGMENTS IS    3

 NUMBER OF STREAM PARAMETERS IS    0

 NUMBER OF STREAM SEGMENTS DEFINED USING PARAMETERS IS    0

 MAXIMUM ERROR FOR STREAM LEAKAGE RATES IS  1.00E-04

 CONSTANT FOR MANNINGS EQUATION IS  1.2839E+05


 UNSATURATED FLOW BENEATH STREAMS IS INACTIVE 

       1136 ELEMENTS IN RX ARRAY ARE USED BY SFR2
       1820 ELEMENTS IN RZ ARRAY ARE USED BY SFR2
        142 ELEMENTS IN IR ARRAY ARE USED BY SFR2

 LAK3 -- LAKE PACKAGE, VERSION 3.2, 1/29/2010 INPUT READ FROM UNIT 16
 SPACE ALLOCATION FOR   1147 GRID CELL FACES ADJACENT TO LAKES
 MAXIMUM NUMBER OF LAKES IS  2 FOR THIS SIMULATION
 CELL-BY-CELL SEEPAGES WILL NOT BE PRINTED OR SAVED

 THETA =  0.500
 THETA IS THE TIME WEIGHTING FACTOR FOR COMPUTING LAKE STAGE DURING TRANSIENT MODFLOW TIME STEPS AND ITS DEFINITION HAS BEEN MODIFIED.
 THETA CAN BE 0, OR BETWEEN 0.5 AND 1.0. VALUES LESS THAN 0.5 ARE RESET TO 0.0 AND VALUES GREATER THAN 1.0 ARE RESET TO 1.0. 
 A THETA OF 0.0 REPRESENTS THE LAKE STAGE FROM THE END OF THE PREVIOUS TIME STEP.
 A THETA OF 0.5 REPRESENTS THE AVERAGE LAKE STAGE DURING A TIME STEP.
 A THETA OF 1.0 REPRESENTS THE LAKE STAGE AT THE END OF THE TIME STEP.




 LAKE PACKAGE HAS BEEN MODIFIED TO ITERATIVELY SOLVE FOR LAKE STAGE DURING TRANSIENT STRESS PERIODS:
 MAXIMUM NUMBER OF ITERATIONS (NSSITR) =   100
 CLOSURE CRITERIA FOR LAKE STAGE (SSCNCR) = 1.000000E-04
 MAGNITUDE OF SURFACE UNDULATIONS OF LAKE BED (SURFDEPTH) = 0.000000E+00
 DEFAULT VALUES FOR TRANSIENT ONLY SIMULATIONS ARE: NSSITR = 100, SSCNCR = 0.0001, AND SURFDEPTH = 1.0
 VALUES OTHER THAN DEFAULT CAN BE READ BY SPECIFYING A THETA LESS THAN ZERO THEN ADDING NSSITR AND SSCNCR PER ORIGINAL INSTRUCTIONS AND SURFDEPTH TO APPROXIMATE UNDULATIONS IN THE LAKEBED
 NEGATIVE THETA MUST BE LESS THAN ZERO BUT NOT MORE THAN ONE. THETA IS CONVERTED TO A POSITIVE VALUE.
 MINIMUM AND MAXIMUM LAKE STAGES FOR TRANSIENT SIMULATIONS ARE SET TO BOTTOM AND TOP ELEVATIONS USED TO COMPUTE LAKE VOLUME, RESPECTIVELY.


       5595 ELEMENTS IN RX ARRAY ARE USED BY LAK
         22 ELEMENTS IN RZ ARRAY ARE USED BY LAK
      10363 ELEMENTS IN IR ARRAY ARE USED BY LAK
          0 ELEMENTS IN RX ARRAY ARE USED BY GAGE
         28 ELEMENTS IN IR ARRAY ARE USED BY GAGE

      19660  ELEMENTS OF RX ARRAY USED OUT OF      19660
       1844  ELEMENTS OF RZ ARRAY USED OUT OF       1844
      13156  ELEMENTS OF IR ARRAY USED OUT OF      13156
1
 #Shows convergence to equilibrium in transient model. ;begin BAS Input          
 #Tests interaction of two lakes and three streams.    ;second comment line      



                     BOUNDARY ARRAY FOR LAYER   1
 READING ON UNIT    7 WITH FORMAT: (17I4)              

        1   2   3   4   5   6   7   8   9  10  11  12  13  14  15  16  17
 ........................................................................
   1   -1  -1  -1  -1  -1  -1  -1  -1  -1  -1  -1  -1  -1  -1  -1  -1  -1
   2   -1   1   1   1   1   1   1   1   1   1   1   1   1   1   1   1  -1
   3   -1   1   1   1   1   1   1   1   1   1   1   1   1   1   1   1  -1
   4   -1   1   1   1   1   1   1   1   1   1   1   1   1   1   1   1  -1
   5   -1   1   1   1   1   1   1   1   1   1   1   1   1   1   1   1  -1
   6   -1   1   1   1   1   1   1   1   1   1   1   1   1   1   1   1  -1
   7   -1   1   1   1   1   1   0   0   0   0   0   1   1   1   1   1  -1
   8   -1   1   1   1   1   1   0   0   0   0   0   1   1   1   1   1  -1
   9   -1   1   1   1   1   1   0   0   0   0   0   1   1   1   1   1  -1
  10   -1   1   1   1   1   1   0   0   0   0   0   1   1   1   1   1  -1
  11   -1   1   1   1   1   1   0   0   0   0   0   1   1   1   1   1  -1
  12   -1   1   1   1   1   1   1   1   1   1   1   1   1   1   1   1  -1
  13   -1   1   1   1   1   1   1   1   1   1   1   1   1   1   1   1  -1
  14   -1   1   1   1   1   1   1   1   1   1   1   1   1   1   1   1  -1
  15   -1   1   1   1   1   1   1   1   1   1   1   1   1   1   1   1  -1
  16   -1   1   1   1   1   1   1   1   1   1   1   1   1   1   1   1  -1
  17   -1   1   1   1   1   1   0   0   0   0   0   1   1   1   1   1  -1
  18   -1   1   1   1   1   1   0   0   0   0   0   1   1   1   1   1  -1
  19   -1   1   1   1   1   1   0   0   0   0   0   1   1   1   1   1  -1
  20   -1   1   1   1   1   1   0   0   0   0   0   1   1   1   1   1  -1
  21   -1   1   1   1   1   1   0   0   0   0   0   1   1   1   1   1  -1
  22   -1   1   1   1   1   1   1   1   1   1   1   1   1   1   1   1  -1
  23   -1   1   1   1   1   1   1   1   1   1   1   1   1   1   1   1  -1
  24   -1   1   1   1   1   1   1   1   1   1   1   1   1   1   1   1  -1
  25   -1   1   1   1   1   1   1   1   1   1   1   1   1   1   1   1  -1
  26   -1   1   1   1   1   1   1   1   1   1   1   1   1   1   1   1  -1
  27   -1  -1  -1  -1  -1  -1  -1  -1  -1  -1  -1  -1  -1  -1  -1  -1  -1



                     BOUNDARY ARRAY FOR LAYER   2
 READING ON UNIT    7 WITH FORMAT: (17I4)              

        1   2   3   4   5   6   7   8   9  10  11  12  13  14  15  16  17
 ........................................................................
   1   -1  -1  -1  -1  -1  -1  -1  -1  -1  -1  -1  -1  -1  -1  -1  -1  -1
   2   -1   1   1   1   1   1   1   1   1   1   1   1   1   1   1   1  -1
   3   -1   1   1   1   1   1   1   1   1   1   1   1   1   1   1   1  -1
   4   -1   1   1   1   1   1   1   1   1   1   1   1   1   1   1   1  -1
   5   -1   1   1   1   1   1   1   1   1   1   1   1   1   1   1   1  -1
   6   -1   1   1   1   1   1   1   1   1   1   1   1   1   1   1   1  -1
   7   -1   1   1   1   1   1   1   1   1   1   1   1   1   1   1   1  -1
   8   -1   1   1   1   1   1   1   0   0   0   1   1   1   1   1   1  -1
   9   -1   1   1   1   1   1   1   0   0   0   1   1   1   1   1   1  -1
  10   -1   1   1   1   1   1   1   0   0   0   1   1   1   1   1   1  -1
  11   -1   1   1   1   1   1   1   1   1   1   1   1   1   1   1   1  -1
  12   -1   1   1   1   1   1   1   1   1   1   1   1   1   1   1   1  -1
  13   -1   1   1   1   1   1   1   1   1   1   1   1   1   1   1   1  -1
  14   -1   1   1   1   1   1   1   1   1   1   1   1   1   1   1   1  -1
  15   -1   1   1   1   1   1   1   1   1   1   1   1   1   1   1   1  -1
  16   -1   1   1   1   1   1   1   1   1   1   1   1   1   1   1   1  -1
  17   -1   1   1   1   1   1   1   1   1   1   1   1   1   1   1   1  -1
  18   -1   1   1   1   1   1   1   0   0   0   1   1   1   1   1   1  -1
  19   -1   1   1   1   1   1   1   0   0   0   1   1   1   1   1   1  -1
  20   -1   1   1   1   1   1   1   0   0   0   1   1   1   1   1   1  -1
  21   -1   1   1   1   1   1   1   1   1   1   1   1   1   1   1   1  -1
  22   -1   1   1   1   1   1   1   1   1   1   1   1   1   1   1   1  -1
  23   -1   1   1   1   1   1   1   1   1   1   1   1   1   1   1   1  -1
  24   -1   1   1   1   1   1   1   1   1   1   1   1   1   1   1   1  -1
  25   -1   1   1   1   1   1   1   1   1   1   1   1   1   1   1   1  -1
  26   -1   1   1   1   1   1   1   1   1   1   1   1   1   1   1   1  -1
  27   -1  -1  -1  -1  -1  -1  -1  -1  -1  -1  -1  -1  -1  -1  -1  -1  -1



                     BOUNDARY ARRAY FOR LAYER   3
 READING ON UNIT    7 WITH FORMAT: (17I4)              

        1   2   3   4   5   6   7   8   9  10  11  12  13  14  15  16  17
 ........................................................................
   1   -1  -1  -1  -1  -1  -1  -1  -1  -1  -1  -1  -1  -1  -1  -1  -1  -1
   2   -1   1   1   1   1   1   1   1   1   1   1   1   1   1   1   1  -1
   3   -1   1   1   1   1   1   1   1   1   1   1   1   1   1   1   1  -1
   4   -1   1   1   1   1   1   1   1   1   1   1   1   1   1   1   1  -1
   5   -1   1   1   1   1   1   1   1   1   1   1   1   1   1   1   1  -1
   6   -1   1   1   1   1   1   1   1   1   1   1   1   1   1   1   1  -1
   7   -1   1   1   1   1   1   1   1   1   1   1   1   1   1   1   1  -1
   8   -1   1   1   1   1   1   1   1   1   1   1   1   1   1   1   1  -1
   9   -1   1   1   1   1   1   1   1   1   1   1   1   1   1   1   1  -1
  10   -1   1   1   1   1   1   1   1   1   1   1   1   1   1   1   1  -1
  11   -1   1   1   1   1   1   1   1   1   1   1   1   1   1   1   1  -1
  12   -1   1   1   1   1   1   1   1   1   1   1   1   1   1   1   1  -1
  13   -1   1   1   1   1   1   1   1   1   1   1   1   1   1   1   1  -1
  14   -1   1   1   1   1   1   1   1   1   1   1   1   1   1   1   1  -1
  15   -1   1   1   1   1   1   1   1   1   1   1   1   1   1   1   1  -1
  16   -1   1   1   1   1   1   1   1   1   1   1   1   1   1   1   1  -1
  17   -1   1   1   1   1   1   1   1   1   1   1   1   1   1   1   1  -1
  18   -1   1   1   1   1   1   1   1   1   1   1   1   1   1   1   1  -1
  19   -1   1   1   1   1   1   1   1   1   1   1   1   1   1   1   1  -1
  20   -1   1   1   1   1   1   1   1   1   1   1   1   1   1   1   1  -1
  21   -1   1   1   1   1   1   1   1   1   1   1   1   1   1   1   1  -1
  22   -1   1   1   1   1   1   1   1   1   1   1   1   1   1   1   1  -1
  23   -1   1   1   1   1   1   1   1   1   1   1   1   1   1   1   1  -1
  24   -1   1   1   1   1   1   1   1   1   1   1   1   1   1   1   1  -1
  25   -1   1   1   1   1   1   1   1   1   1   1   1   1   1   1   1  -1
  26   -1   1   1   1   1   1   1   1   1   1   1   1   1   1   1   1  -1
  27   -1  -1  -1  -1  -1  -1  -1  -1  -1  -1  -1  -1  -1  -1  -1  -1  -1



                     BOUNDARY ARRAY FOR LAYER   4
 READING ON UNIT    7 WITH FORMAT: (17I4)              

        1   2   3   4   5   6   7   8   9  10  11  12  13  14  15  16  17
 ........................................................................
   1   -1  -1  -1  -1  -1  -1  -1  -1  -1  -1  -1  -1  -1  -1  -1  -1  -1
   2   -1   1   1   1   1   1   1   1   1   1   1   1   1   1   1   1  -1
   3   -1   1   1   1   1   1   1   1   1   1   1   1   1   1   1   1  -1
   4   -1   1   1   1   1   1   1   1   1   1   1   1   1   1   1   1  -1
   5   -1   1   1   1   1   1   1   1   1   1   1   1   1   1   1   1  -1
   6   -1   1   1   1   1   1   1   1   1   1   1   1   1   1   1   1  -1
   7   -1   1   1   1   1   1   1   1   1   1   1   1   1   1   1   1  -1
   8   -1   1   1   1   1   1   1   1   1   1   1   1   1   1   1   1  -1
   9   -1   1   1   1   1   1   1   1   1   1   1   1   1   1   1   1  -1
  10   -1   1   1   1   1   1   1   1   1   1   1   1   1   1   1   1  -1
  11   -1   1   1   1   1   1   1   1   1   1   1   1   1   1   1   1  -1
  12   -1   1   1   1   1   1   1   1   1   1   1   1   1   1   1   1  -1
  13   -1   1   1   1   1   1   1   1   1   1   1   1   1   1   1   1  -1
  14   -1   1   1   1   1   1   1   1   1   1   1   1   1   1   1   1  -1
  15   -1   1   1   1   1   1   1   1   1   1   1   1   1   1   1   1  -1
  16   -1   1   1   1   1   1   1   1   1   1   1   1   1   1   1   1  -1
  17   -1   1   1   1   1   1   1   1   1   1   1   1   1   1   1   1  -1
  18   -1   1   1   1   1   1   1   1   1   1   1   1   1   1   1   1  -1
  19   -1   1   1   1   1   1   1   1   1   1   1   1   1   1   1   1  -1
  20   -1   1   1   1   1   1   1   1   1   1   1   1   1   1   1   1  -1
  21   -1   1   1   1   1   1   1   1   1   1   1   1   1   1   1   1  -1
  22   -1   1   1   1   1   1   1   1   1   1   1   1   1   1   1   1  -1
  23   -1   1   1   1   1   1   1   1   1   1   1   1   1   1   1   1  -1
  24   -1   1   1   1   1   1   1   1   1   1   1   1   1   1   1   1  -1
  25   -1   1   1   1   1   1   1   1   1   1   1   1   1   1   1   1  -1
  26   -1   1   1   1   1   1   1   1   1   1   1   1   1   1   1   1  -1
  27   -1  -1  -1  -1  -1  -1  -1  -1  -1  -1  -1  -1  -1  -1  -1  -1  -1



                     BOUNDARY ARRAY FOR LAYER   5
 READING ON UNIT    7 WITH FORMAT: (17I4)              

        1   2   3   4   5   6   7   8   9  10  11  12  13  14  15  16  17
 ........................................................................
   1   -1  -1  -1  -1  -1  -1  -1  -1  -1  -1  -1  -1  -1  -1  -1  -1  -1
   2   -1   1   1   1   1   1   1   1   1   1   1   1   1   1   1   1  -1
   3   -1   1   1   1   1   1   1   1   1   1   1   1   1   1   1   1  -1
   4   -1   1   1   1   1   1   1   1   1   1   1   1   1   1   1   1  -1
   5   -1   1   1   1   1   1   1   1   1   1   1   1   1   1   1   1  -1
   6   -1   1   1   1   1   1   1   1   1   1   1   1   1   1   1   1  -1
   7   -1   1   1   1   1   1   1   1   1   1   1   1   1   1   1   1  -1
   8   -1   1   1   1   1   1   1   1   1   1   1   1   1   1   1   1  -1
   9   -1   1   1   1   1   1   1   1   1   1   1   1   1   1   1   1  -1
  10   -1   1   1   1   1   1   1   1   1   1   1   1   1   1   1   1  -1
  11   -1   1   1   1   1   1   1   1   1   1   1   1   1   1   1   1  -1
  12   -1   1   1   1   1   1   1   1   1   1   1   1   1   1   1   1  -1
  13   -1   1   1   1   1   1   1   1   1   1   1   1   1   1   1   1  -1
  14   -1   1   1   1   1   1   1   1   1   1   1   1   1   1   1   1  -1
  15   -1   1   1   1   1   1   1   1   1   1   1   1   1   1   1   1  -1
  16   -1   1   1   1   1   1   1   1   1   1   1   1   1   1   1   1  -1
  17   -1   1   1   1   1   1   1   1   1   1   1   1   1   1   1   1  -1
  18   -1   1   1   1   1   1   1   1   1   1   1   1   1   1   1   1  -1
  19   -1   1   1   1   1   1   1   1   1   1   1   1   1   1   1   1  -1
  20   -1   1   1   1   1   1   1   1   1   1   1   1   1   1   1   1  -1
  21   -1   1   1   1   1   1   1   1   1   1   1   1   1   1   1   1  -1
  22   -1   1   1   1   1   1   1   1   1   1   1   1   1   1   1   1  -1
  23   -1   1   1   1   1   1   1   1   1   1   1   1   1   1   1   1  -1
  24   -1   1   1   1   1   1   1   1   1   1   1   1   1   1   1   1  -1
  25   -1   1   1   1   1   1   1   1   1   1   1   1   1   1   1   1  -1
  26   -1   1   1   1   1   1   1   1   1   1   1   1   1   1   1   1  -1
  27   -1  -1  -1  -1  -1  -1  -1  -1  -1  -1  -1  -1  -1  -1  -1  -1  -1

 AQUIFER HEAD WILL BE SET TO -999.00     AT ALL NO-FLOW NODES (IBOUND=0).

             INITIAL HEAD =   115.000     FOR LAYER   1

             INITIAL HEAD =   115.000     FOR LAYER   2

             INITIAL HEAD =   115.000     FOR LAYER   3

             INITIAL HEAD =   115.000     FOR LAYER   4

             INITIAL HEAD =   115.000     FOR LAYER   5

 OUTPUT CONTROL IS SPECIFIED EVERY TIME STEP
 HEAD PRINT FORMAT CODE IS -14    DRAWDOWN PRINT FORMAT CODE IS   9
 HEADS WILL BE SAVED ON UNIT   18    DRAWDOWNS WILL BE SAVED ON UNIT   19

 COLUMN TO ROW ANISOTROPY =   1.00000    

     PRIMARY STORAGE COEF =  0.200000     FOR LAYER   1

    HYD. COND. ALONG ROWS =   30.0000     FOR LAYER   1

 VERT HYD COND /THICKNESS =   3.00000     FOR LAYER   1



                   WETDRY PARAMETER FOR LAYER   1
 READING ON UNIT   10 WITH FORMAT: (17F4.0)            

            1           2           3           4           5           6           7           8           9          10
           11          12          13          14          15          16          17
 ........................................................................................................................
   1    0.000       0.000       0.000       0.000       0.000       0.000       0.000       0.000       0.000       0.000    
        0.000       0.000       0.000       0.000       0.000       0.000       0.000    
   2    0.000     -0.2000     -0.2000     -0.2000     -0.2000     -0.2000     -0.2000     -0.2000     -0.2000     -0.2000    
      -0.2000     -0.2000     -0.2000     -0.2000     -0.2000     -0.2000       0.000    
   3    0.000     -0.2000     -0.2000     -0.2000     -0.2000     -0.2000     -0.2000     -0.2000     -0.2000     -0.2000    
      -0.2000     -0.2000     -0.2000     -0.2000     -0.2000     -0.2000       0.000    
   4    0.000     -0.2000     -0.2000     -0.2000     -0.2000     -0.2000     -0.2000     -0.2000     -0.2000     -0.2000    
      -0.2000     -0.2000     -0.2000     -0.2000     -0.2000     -0.2000       0.000    
   5    0.000     -0.2000     -0.2000     -0.2000     -0.2000     -0.2000     -0.2000     -0.2000     -0.2000     -0.2000    
      -0.2000     -0.2000     -0.2000     -0.2000     -0.2000     -0.2000       0.000    
   6    0.000     -0.2000     -0.2000     -0.2000     -0.2000     -0.2000     -0.2000     -0.2000     -0.2000     -0.2000    
      -0.2000     -0.2000     -0.2000     -0.2000     -0.2000     -0.2000       0.000    
   7    0.000     -0.2000     -0.2000     -0.2000     -0.2000     -0.2000       0.000       0.000       0.000       0.000    
        0.000     -0.2000     -0.2000     -0.2000     -0.2000     -0.2000       0.000    
   8    0.000     -0.2000     -0.2000     -0.2000     -0.2000     -0.2000       0.000       0.000       0.000       0.000    
        0.000     -0.2000     -0.2000     -0.2000     -0.2000     -0.2000       0.000    
   9    0.000     -0.2000     -0.2000     -0.2000     -0.2000     -0.2000       0.000       0.000       0.000       0.000    
        0.000     -0.2000     -0.2000     -0.2000     -0.2000     -0.2000       0.000    
  10    0.000     -0.2000     -0.2000     -0.2000     -0.2000     -0.2000       0.000       0.000       0.000       0.000    
        0.000     -0.2000     -0.2000     -0.2000     -0.2000     -0.2000       0.000    
  11    0.000     -0.2000     -0.2000     -0.2000     -0.2000     -0.2000       0.000       0.000       0.000       0.000    
        0.000     -0.2000     -0.2000     -0.2000     -0.2000     -0.2000       0.000    
  12    0.000     -0.2000     -0.2000     -0.2000     -0.2000     -0.2000     -0.2000     -0.2000     -0.2000     -0.2000    
      -0.2000     -0.2000     -0.2000     -0.2000     -0.2000     -0.2000       0.000    
  13    0.000     -0.2000     -0.2000     -0.2000     -0.2000     -0.2000     -0.2000     -0.2000     -0.2000     -0.2000    
      -0.2000     -0.2000     -0.2000     -0.2000     -0.2000     -0.2000       0.000    
  14    0.000     -0.2000     -0.2000     -0.2000     -0.2000     -0.2000     -0.2000     -0.2000     -0.2000     -0.2000    
      -0.2000     -0.2000     -0.2000     -0.2000     -0.2000     -0.2000       0.000    
  15    0.000     -0.2000     -0.2000     -0.2000     -0.2000     -0.2000     -0.2000     -0.2000     -0.2000     -0.2000    
      -0.2000     -0.2000     -0.2000     -0.2000     -0.2000     -0.2000       0.000    
  16    0.000     -0.2000     -0.2000     -0.2000     -0.2000     -0.2000     -0.2000     -0.2000     -0.2000     -0.2000    
      -0.2000     -0.2000     -0.2000     -0.2000     -0.2000     -0.2000       0.000    
  17    0.000     -0.2000     -0.2000     -0.2000     -0.2000     -0.2000       0.000       0.000       0.000       0.000    
        0.000     -0.2000     -0.2000     -0.2000     -0.2000     -0.2000       0.000    
  18    0.000     -0.2000     -0.2000     -0.2000     -0.2000     -0.2000       0.000       0.000       0.000       0.000    
        0.000     -0.2000     -0.2000     -0.2000     -0.2000     -0.2000       0.000    
  19    0.000     -0.2000     -0.2000     -0.2000     -0.2000     -0.2000       0.000       0.000       0.000       0.000    
        0.000     -0.2000     -0.2000     -0.2000     -0.2000     -0.2000       0.000    
  20    0.000     -0.2000     -0.2000     -0.2000     -0.2000     -0.2000       0.000       0.000       0.000       0.000    
        0.000     -0.2000     -0.2000     -0.2000     -0.2000     -0.2000       0.000    
  21    0.000     -0.2000     -0.2000     -0.2000     -0.2000     -0.2000       0.000       0.000       0.000       0.000    
        0.000     -0.2000     -0.2000     -0.2000     -0.2000     -0.2000       0.000    
  22    0.000     -0.2000     -0.2000     -0.2000     -0.2000     -0.2000     -0.2000     -0.2000     -0.2000     -0.2000    
      -0.2000     -0.2000     -0.2000     -0.2000     -0.2000     -0.2000       0.000    
  23    0.000     -0.2000     -0.2000     -0.2000     -0.2000     -0.2000     -0.2000     -0.2000     -0.2000     -0.2000    
      -0.2000     -0.2000     -0.2000     -0.2000     -0.2000     -0.2000       0.000    
  24    0.000     -0.2000     -0.2000     -0.2000     -0.2000     -0.2000     -0.2000     -0.2000     -0.2000     -0.2000    
      -0.2000     -0.2000     -0.2000     -0.2000     -0.2000     -0.2000       0.000    
  25    0.000     -0.2000     -0.2000     -0.2000     -0.2000     -0.2000     -0.2000     -0.2000     -0.2000     -0.2000    
      -0.2000     -0.2000     -0.2000     -0.2000     -0.2000     -0.2000       0.000    
  26    0.000     -0.2000     -0.2000     -0.2000     -0.2000     -0.2000     -0.2000     -0.2000     -0.2000     -0.2000    
      -0.2000     -0.2000     -0.2000     -0.2000     -0.2000     -0.2000       0.000    
  27    0.000       0.000       0.000       0.000       0.000       0.000       0.000       0.000       0.000       0.000    
        0.000       0.000       0.000       0.000       0.000       0.000       0.000    

     PRIMARY STORAGE COEF =  3.000000E-04 FOR LAYER   2

    HYD. COND. ALONG ROWS =   30.0000     FOR LAYER   2

 VERT HYD COND /THICKNESS =   3.00000     FOR LAYER   2

   SECONDARY STORAGE COEF =  0.200000     FOR LAYER   2



                   WETDRY PARAMETER FOR LAYER   2
 READING ON UNIT   10 WITH FORMAT: (17F4.0)            

            1           2           3           4           5           6           7           8           9          10
           11          12          13          14          15          16          17
 ........................................................................................................................
   1    0.000       0.000       0.000       0.000       0.000       0.000       0.000       0.000       0.000       0.000    
        0.000       0.000       0.000       0.000       0.000       0.000       0.000    
   2    0.000     -0.2000     -0.2000     -0.2000     -0.2000     -0.2000     -0.2000     -0.2000     -0.2000     -0.2000    
      -0.2000     -0.2000     -0.2000     -0.2000     -0.2000     -0.2000       0.000    
   3    0.000     -0.2000     -0.2000     -0.2000     -0.2000     -0.2000     -0.2000     -0.2000     -0.2000     -0.2000    
      -0.2000     -0.2000     -0.2000     -0.2000     -0.2000     -0.2000       0.000    
   4    0.000     -0.2000     -0.2000     -0.2000     -0.2000     -0.2000     -0.2000     -0.2000     -0.2000     -0.2000    
      -0.2000     -0.2000     -0.2000     -0.2000     -0.2000     -0.2000       0.000    
   5    0.000     -0.2000     -0.2000     -0.2000     -0.2000     -0.2000     -0.2000     -0.2000     -0.2000     -0.2000    
      -0.2000     -0.2000     -0.2000     -0.2000     -0.2000     -0.2000       0.000    
   6    0.000     -0.2000     -0.2000     -0.2000     -0.2000     -0.2000     -0.2000     -0.2000     -0.2000     -0.2000    
      -0.2000     -0.2000     -0.2000     -0.2000     -0.2000     -0.2000       0.000    
   7    0.000     -0.2000     -0.2000     -0.2000     -0.2000     -0.2000     -0.2000     -0.2000     -0.2000     -0.2000    
      -0.2000     -0.2000     -0.2000     -0.2000     -0.2000     -0.2000       0.000    
   8    0.000     -0.2000     -0.2000     -0.2000     -0.2000     -0.2000     -0.2000       0.000       0.000       0.000    
      -0.2000     -0.2000     -0.2000     -0.2000     -0.2000     -0.2000       0.000    
   9    0.000     -0.2000     -0.2000     -0.2000     -0.2000     -0.2000     -0.2000       0.000       0.000       0.000    
      -0.2000     -0.2000     -0.2000     -0.2000     -0.2000     -0.2000       0.000    
  10    0.000     -0.2000     -0.2000     -0.2000     -0.2000     -0.2000     -0.2000       0.000       0.000       0.000    
      -0.2000     -0.2000     -0.2000     -0.2000     -0.2000     -0.2000       0.000    
  11    0.000     -0.2000     -0.2000     -0.2000     -0.2000     -0.2000     -0.2000     -0.2000     -0.2000     -0.2000    
      -0.2000     -0.2000     -0.2000     -0.2000     -0.2000     -0.2000       0.000    
  12    0.000     -0.2000     -0.2000     -0.2000     -0.2000     -0.2000     -0.2000     -0.2000     -0.2000     -0.2000    
      -0.2000     -0.2000     -0.2000     -0.2000     -0.2000     -0.2000       0.000    
  13    0.000     -0.2000     -0.2000     -0.2000     -0.2000     -0.2000     -0.2000     -0.2000     -0.2000     -0.2000    
      -0.2000     -0.2000     -0.2000     -0.2000     -0.2000     -0.2000       0.000    
  14    0.000     -0.2000     -0.2000     -0.2000     -0.2000     -0.2000     -0.2000     -0.2000     -0.2000     -0.2000    
      -0.2000     -0.2000     -0.2000     -0.2000     -0.2000     -0.2000       0.000    
  15    0.000     -0.2000     -0.2000     -0.2000     -0.2000     -0.2000     -0.2000     -0.2000     -0.2000     -0.2000    
      -0.2000     -0.2000     -0.2000     -0.2000     -0.2000     -0.2000       0.000    
  16    0.000     -0.2000     -0.2000     -0.2000     -0.2000     -0.2000     -0.2000     -0.2000     -0.2000     -0.2000    
      -0.2000     -0.2000     -0.2000     -0.2000     -0.2000     -0.2000       0.000    
  17    0.000     -0.2000     -0.2000     -0.2000     -0.2000     -0.2000     -0.2000     -0.2000     -0.2000     -0.2000    
      -0.2000     -0.2000     -0.2000     -0.2000     -0.2000     -0.2000       0.000    
  18    0.000     -0.2000     -0.2000     -0.2000     -0.2000     -0.2000     -0.2000       0.000       0.000       0.000    
      -0.2000     -0.2000     -0.2000     -0.2000     -0.2000     -0.2000       0.000    
  19    0.000     -0.2000     -0.2000     -0.2000     -0.2000     -0.2000     -0.2000       0.000       0.000       0.000    
      -0.2000     -0.2000     -0.2000     -0.2000     -0.2000     -0.2000       0.000    
  20    0.000     -0.2000     -0.2000     -0.2000     -0.2000     -0.2000     -0.2000       0.000       0.000       0.000    
      -0.2000     -0.2000     -0.2000     -0.2000     -0.2000     -0.2000       0.000    
  21    0.000     -0.2000     -0.2000     -0.2000     -0.2000     -0.2000     -0.2000     -0.2000     -0.2000     -0.2000    
      -0.2000     -0.2000     -0.2000     -0.2000     -0.2000     -0.2000       0.000    
  22    0.000     -0.2000     -0.2000     -0.2000     -0.2000     -0.2000     -0.2000     -0.2000     -0.2000     -0.2000    
      -0.2000     -0.2000     -0.2000     -0.2000     -0.2000     -0.2000       0.000    
  23    0.000     -0.2000     -0.2000     -0.2000     -0.2000     -0.2000     -0.2000     -0.2000     -0.2000     -0.2000    
      -0.2000     -0.2000     -0.2000     -0.2000     -0.2000     -0.2000       0.000    
  24    0.000     -0.2000     -0.2000     -0.2000     -0.2000     -0.2000     -0.2000     -0.2000     -0.2000     -0.2000    
      -0.2000     -0.2000     -0.2000     -0.2000     -0.2000     -0.2000       0.000    
  25    0.000     -0.2000     -0.2000     -0.2000     -0.2000     -0.2000     -0.2000     -0.2000     -0.2000     -0.2000    
      -0.2000     -0.2000     -0.2000     -0.2000     -0.2000     -0.2000       0.000    
  26    0.000     -0.2000     -0.2000     -0.2000     -0.2000     -0.2000     -0.2000     -0.2000     -0.2000     -0.2000    
      -0.2000     -0.2000     -0.2000     -0.2000     -0.2000     -0.2000       0.000    
  27    0.000       0.000       0.000       0.000       0.000       0.000       0.000       0.000       0.000       0.000    
        0.000       0.000       0.000       0.000       0.000       0.000       0.000    

     PRIMARY STORAGE COEF =  3.000000E-04 FOR LAYER   3

    HYD. COND. ALONG ROWS =   30.0000     FOR LAYER   3

 VERT HYD COND /THICKNESS =   3.00000     FOR LAYER   3

   SECONDARY STORAGE COEF =  0.200000     FOR LAYER   3



                   WETDRY PARAMETER FOR LAYER   3
 READING ON UNIT   10 WITH FORMAT: (17F4.0)            

            1           2           3           4           5           6           7           8           9          10
           11          12          13          14          15          16          17
 ........................................................................................................................
   1    0.000       0.000       0.000       0.000       0.000       0.000       0.000       0.000       0.000       0.000    
        0.000       0.000       0.000       0.000       0.000       0.000       0.000    
   2    0.000     -0.2000     -0.2000     -0.2000     -0.2000     -0.2000     -0.2000     -0.2000     -0.2000     -0.2000    
      -0.2000     -0.2000     -0.2000     -0.2000     -0.2000     -0.2000       0.000    
   3    0.000     -0.2000     -0.2000     -0.2000     -0.2000     -0.2000     -0.2000     -0.2000     -0.2000     -0.2000    
      -0.2000     -0.2000     -0.2000     -0.2000     -0.2000     -0.2000       0.000    
   4    0.000     -0.2000     -0.2000     -0.2000     -0.2000     -0.2000     -0.2000     -0.2000     -0.2000     -0.2000    
      -0.2000     -0.2000     -0.2000     -0.2000     -0.2000     -0.2000       0.000    
   5    0.000     -0.2000     -0.2000     -0.2000     -0.2000     -0.2000     -0.2000     -0.2000     -0.2000     -0.2000    
      -0.2000     -0.2000     -0.2000     -0.2000     -0.2000     -0.2000       0.000    
   6    0.000     -0.2000     -0.2000     -0.2000     -0.2000     -0.2000     -0.2000     -0.2000     -0.2000     -0.2000    
      -0.2000     -0.2000     -0.2000     -0.2000     -0.2000     -0.2000       0.000    
   7    0.000     -0.2000     -0.2000     -0.2000     -0.2000     -0.2000     -0.2000     -0.2000     -0.2000     -0.2000    
      -0.2000     -0.2000     -0.2000     -0.2000     -0.2000     -0.2000       0.000    
   8    0.000     -0.2000     -0.2000     -0.2000     -0.2000     -0.2000     -0.2000     -0.2000     -0.2000     -0.2000    
      -0.2000     -0.2000     -0.2000     -0.2000     -0.2000     -0.2000       0.000    
   9    0.000     -0.2000     -0.2000     -0.2000     -0.2000     -0.2000     -0.2000     -0.2000     -0.2000     -0.2000    
      -0.2000     -0.2000     -0.2000     -0.2000     -0.2000     -0.2000       0.000    
  10    0.000     -0.2000     -0.2000     -0.2000     -0.2000     -0.2000     -0.2000     -0.2000     -0.2000     -0.2000    
      -0.2000     -0.2000     -0.2000     -0.2000     -0.2000     -0.2000       0.000    
  11    0.000     -0.2000     -0.2000     -0.2000     -0.2000     -0.2000     -0.2000     -0.2000     -0.2000     -0.2000    
      -0.2000     -0.2000     -0.2000     -0.2000     -0.2000     -0.2000       0.000    
  12    0.000     -0.2000     -0.2000     -0.2000     -0.2000     -0.2000     -0.2000     -0.2000     -0.2000     -0.2000    
      -0.2000     -0.2000     -0.2000     -0.2000     -0.2000     -0.2000       0.000    
  13    0.000     -0.2000     -0.2000     -0.2000     -0.2000     -0.2000     -0.2000     -0.2000     -0.2000     -0.2000    
      -0.2000     -0.2000     -0.2000     -0.2000     -0.2000     -0.2000       0.000    
  14    0.000     -0.2000     -0.2000     -0.2000     -0.2000     -0.2000     -0.2000     -0.2000     -0.2000     -0.2000    
      -0.2000     -0.2000     -0.2000     -0.2000     -0.2000     -0.2000       0.000    
  15    0.000     -0.2000     -0.2000     -0.2000     -0.2000     -0.2000     -0.2000     -0.2000     -0.2000     -0.2000    
      -0.2000     -0.2000     -0.2000     -0.2000     -0.2000     -0.2000       0.000    
  16    0.000     -0.2000     -0.2000     -0.2000     -0.2000     -0.2000     -0.2000     -0.2000     -0.2000     -0.2000    
      -0.2000     -0.2000     -0.2000     -0.2000     -0.2000     -0.2000       0.000    
  17    0.000     -0.2000     -0.2000     -0.2000     -0.2000     -0.2000     -0.2000     -0.2000     -0.2000     -0.2000    
      -0.2000     -0.2000     -0.2000     -0.2000     -0.2000     -0.2000       0.000    
  18    0.000     -0.2000     -0.2000     -0.2000     -0.2000     -0.2000     -0.2000     -0.2000     -0.2000     -0.2000    
      -0.2000     -0.2000     -0.2000     -0.2000     -0.2000     -0.2000       0.000    
  19    0.000     -0.2000     -0.2000     -0.2000     -0.2000     -0.2000     -0.2000     -0.2000     -0.2000     -0.2000    
      -0.2000     -0.2000     -0.2000     -0.2000     -0.2000     -0.2000       0.000    
  20    0.000     -0.2000     -0.2000     -0.2000     -0.2000     -0.2000     -0.2000     -0.2000     -0.2000     -0.2000    
      -0.2000     -0.2000     -0.2000     -0.2000     -0.2000     -0.2000       0.000    
  21    0.000     -0.2000     -0.2000     -0.2000     -0.2000     -0.2000     -0.2000     -0.2000     -0.2000     -0.2000    
      -0.2000     -0.2000     -0.2000     -0.2000     -0.2000     -0.2000       0.000    
  22    0.000     -0.2000     -0.2000     -0.2000     -0.2000     -0.2000     -0.2000     -0.2000     -0.2000     -0.2000    
      -0.2000     -0.2000     -0.2000     -0.2000     -0.2000     -0.2000       0.000    
  23    0.000     -0.2000     -0.2000     -0.2000     -0.2000     -0.2000     -0.2000     -0.2000     -0.2000     -0.2000    
      -0.2000     -0.2000     -0.2000     -0.2000     -0.2000     -0.2000       0.000    
  24    0.000     -0.2000     -0.2000     -0.2000     -0.2000     -0.2000     -0.2000     -0.2000     -0.2000     -0.2000    
      -0.2000     -0.2000     -0.2000     -0.2000     -0.2000     -0.2000       0.000    
  25    0.000     -0.2000     -0.2000     -0.2000     -0.2000     -0.2000     -0.2000     -0.2000     -0.2000     -0.2000    
      -0.2000     -0.2000     -0.2000     -0.2000     -0.2000     -0.2000       0.000    
  26    0.000     -0.2000     -0.2000     -0.2000     -0.2000     -0.2000     -0.2000     -0.2000     -0.2000     -0.2000    
      -0.2000     -0.2000     -0.2000     -0.2000     -0.2000     -0.2000       0.000    
  27    0.000       0.000       0.000       0.000       0.000       0.000       0.000       0.000       0.000       0.000    
        0.000       0.000       0.000       0.000       0.000       0.000       0.000    

     PRIMARY STORAGE COEF =  3.000000E-04 FOR LAYER   4

    HYD. COND. ALONG ROWS =   30.0000     FOR LAYER   4

 VERT HYD COND /THICKNESS =   3.00000     FOR LAYER   4

   SECONDARY STORAGE COEF =  0.200000     FOR LAYER   4



                   WETDRY PARAMETER FOR LAYER   4
 READING ON UNIT   10 WITH FORMAT: (17F4.0)            

            1           2           3           4           5           6           7           8           9          10
           11          12          13          14          15          16          17
 ........................................................................................................................
   1    0.000       0.000       0.000       0.000       0.000       0.000       0.000       0.000       0.000       0.000    
        0.000       0.000       0.000       0.000       0.000       0.000       0.000    
   2    0.000     -0.2000     -0.2000     -0.2000     -0.2000     -0.2000     -0.2000     -0.2000     -0.2000     -0.2000    
      -0.2000     -0.2000     -0.2000     -0.2000     -0.2000     -0.2000       0.000    
   3    0.000     -0.2000     -0.2000     -0.2000     -0.2000     -0.2000     -0.2000     -0.2000     -0.2000     -0.2000    
      -0.2000     -0.2000     -0.2000     -0.2000     -0.2000     -0.2000       0.000    
   4    0.000     -0.2000     -0.2000     -0.2000     -0.2000     -0.2000     -0.2000     -0.2000     -0.2000     -0.2000    
      -0.2000     -0.2000     -0.2000     -0.2000     -0.2000     -0.2000       0.000    
   5    0.000     -0.2000     -0.2000     -0.2000     -0.2000     -0.2000     -0.2000     -0.2000     -0.2000     -0.2000    
      -0.2000     -0.2000     -0.2000     -0.2000     -0.2000     -0.2000       0.000    
   6    0.000     -0.2000     -0.2000     -0.2000     -0.2000     -0.2000     -0.2000     -0.2000     -0.2000     -0.2000    
      -0.2000     -0.2000     -0.2000     -0.2000     -0.2000     -0.2000       0.000    
   7    0.000     -0.2000     -0.2000     -0.2000     -0.2000     -0.2000     -0.2000     -0.2000     -0.2000     -0.2000    
      -0.2000     -0.2000     -0.2000     -0.2000     -0.2000     -0.2000       0.000    
   8    0.000     -0.2000     -0.2000     -0.2000     -0.2000     -0.2000     -0.2000     -0.2000     -0.2000     -0.2000    
      -0.2000     -0.2000     -0.2000     -0.2000     -0.2000     -0.2000       0.000    
   9    0.000     -0.2000     -0.2000     -0.2000     -0.2000     -0.2000     -0.2000     -0.2000     -0.2000     -0.2000    
      -0.2000     -0.2000     -0.2000     -0.2000     -0.2000     -0.2000       0.000    
  10    0.000     -0.2000     -0.2000     -0.2000     -0.2000     -0.2000     -0.2000     -0.2000     -0.2000     -0.2000    
      -0.2000     -0.2000     -0.2000     -0.2000     -0.2000     -0.2000       0.000    
  11    0.000     -0.2000     -0.2000     -0.2000     -0.2000     -0.2000     -0.2000     -0.2000     -0.2000     -0.2000    
      -0.2000     -0.2000     -0.2000     -0.2000     -0.2000     -0.2000       0.000    
  12    0.000     -0.2000     -0.2000     -0.2000     -0.2000     -0.2000     -0.2000     -0.2000     -0.2000     -0.2000    
      -0.2000     -0.2000     -0.2000     -0.2000     -0.2000     -0.2000       0.000    
  13    0.000     -0.2000     -0.2000     -0.2000     -0.2000     -0.2000     -0.2000     -0.2000     -0.2000     -0.2000    
      -0.2000     -0.2000     -0.2000     -0.2000     -0.2000     -0.2000       0.000    
  14    0.000     -0.2000     -0.2000     -0.2000     -0.2000     -0.2000     -0.2000     -0.2000     -0.2000     -0.2000    
      -0.2000     -0.2000     -0.2000     -0.2000     -0.2000     -0.2000       0.000    
  15    0.000     -0.2000     -0.2000     -0.2000     -0.2000     -0.2000     -0.2000     -0.2000     -0.2000     -0.2000    
      -0.2000     -0.2000     -0.2000     -0.2000     -0.2000     -0.2000       0.000    
  16    0.000     -0.2000     -0.2000     -0.2000     -0.2000     -0.2000     -0.2000     -0.2000     -0.2000     -0.2000    
      -0.2000     -0.2000     -0.2000     -0.2000     -0.2000     -0.2000       0.000    
  17    0.000     -0.2000     -0.2000     -0.2000     -0.2000     -0.2000     -0.2000     -0.2000     -0.2000     -0.2000    
      -0.2000     -0.2000     -0.2000     -0.2000     -0.2000     -0.2000       0.000    
  18    0.000     -0.2000     -0.2000     -0.2000     -0.2000     -0.2000     -0.2000     -0.2000     -0.2000     -0.2000    
      -0.2000     -0.2000     -0.2000     -0.2000     -0.2000     -0.2000       0.000    
  19    0.000     -0.2000     -0.2000     -0.2000     -0.2000     -0.2000     -0.2000     -0.2000     -0.2000     -0.2000    
      -0.2000     -0.2000     -0.2000     -0.2000     -0.2000     -0.2000       0.000    
  20    0.000     -0.2000     -0.2000     -0.2000     -0.2000     -0.2000     -0.2000     -0.2000     -0.2000     -0.2000    
      -0.2000     -0.2000     -0.2000     -0.2000     -0.2000     -0.2000       0.000    
  21    0.000     -0.2000     -0.2000     -0.2000     -0.2000     -0.2000     -0.2000     -0.2000     -0.2000     -0.2000    
      -0.2000     -0.2000     -0.2000     -0.2000     -0.2000     -0.2000       0.000    
  22    0.000     -0.2000     -0.2000     -0.2000     -0.2000     -0.2000     -0.2000     -0.2000     -0.2000     -0.2000    
      -0.2000     -0.2000     -0.2000     -0.2000     -0.2000     -0.2000       0.000    
  23    0.000     -0.2000     -0.2000     -0.2000     -0.2000     -0.2000     -0.2000     -0.2000     -0.2000     -0.2000    
      -0.2000     -0.2000     -0.2000     -0.2000     -0.2000     -0.2000       0.000    
  24    0.000     -0.2000     -0.2000     -0.2000     -0.2000     -0.2000     -0.2000     -0.2000     -0.2000     -0.2000    
      -0.2000     -0.2000     -0.2000     -0.2000     -0.2000     -0.2000       0.000    
  25    0.000     -0.2000     -0.2000     -0.2000     -0.2000     -0.2000     -0.2000     -0.2000     -0.2000     -0.2000    
      -0.2000     -0.2000     -0.2000     -0.2000     -0.2000     -0.2000       0.000    
  26    0.000     -0.2000     -0.2000     -0.2000     -0.2000     -0.2000     -0.2000     -0.2000     -0.2000     -0.2000    
      -0.2000     -0.2000     -0.2000     -0.2000     -0.2000     -0.2000       0.000    
  27    0.000       0.000       0.000       0.000       0.000       0.000       0.000       0.000       0.000       0.000    
        0.000       0.000       0.000       0.000       0.000       0.000       0.000    

     PRIMARY STORAGE COEF =  3.000000E-04 FOR LAYER   5

    HYD. COND. ALONG ROWS =   30.0000     FOR LAYER   5

   SECONDARY STORAGE COEF =  0.200000     FOR LAYER   5



                   WETDRY PARAMETER FOR LAYER   5
 READING ON UNIT   10 WITH FORMAT: (17F4.0)            

            1           2           3           4           5           6           7           8           9          10
           11          12          13          14          15          16          17
 ........................................................................................................................
   1    0.000       0.000       0.000       0.000       0.000       0.000       0.000       0.000       0.000       0.000    
        0.000       0.000       0.000       0.000       0.000       0.000       0.000    
   2    0.000     -0.2000     -0.2000     -0.2000     -0.2000     -0.2000     -0.2000     -0.2000     -0.2000     -0.2000    
      -0.2000     -0.2000     -0.2000     -0.2000     -0.2000     -0.2000       0.000    
   3    0.000     -0.2000     -0.2000     -0.2000     -0.2000     -0.2000     -0.2000     -0.2000     -0.2000     -0.2000    
      -0.2000     -0.2000     -0.2000     -0.2000     -0.2000     -0.2000       0.000    
   4    0.000     -0.2000     -0.2000     -0.2000     -0.2000     -0.2000     -0.2000     -0.2000     -0.2000     -0.2000    
      -0.2000     -0.2000     -0.2000     -0.2000     -0.2000     -0.2000       0.000    
   5    0.000     -0.2000     -0.2000     -0.2000     -0.2000     -0.2000     -0.2000     -0.2000     -0.2000     -0.2000    
      -0.2000     -0.2000     -0.2000     -0.2000     -0.2000     -0.2000       0.000    
   6    0.000     -0.2000     -0.2000     -0.2000     -0.2000     -0.2000     -0.2000     -0.2000     -0.2000     -0.2000    
      -0.2000     -0.2000     -0.2000     -0.2000     -0.2000     -0.2000       0.000    
   7    0.000     -0.2000     -0.2000     -0.2000     -0.2000     -0.2000     -0.2000     -0.2000     -0.2000     -0.2000    
      -0.2000     -0.2000     -0.2000     -0.2000     -0.2000     -0.2000       0.000    
   8    0.000     -0.2000     -0.2000     -0.2000     -0.2000     -0.2000     -0.2000     -0.2000     -0.2000     -0.2000    
      -0.2000     -0.2000     -0.2000     -0.2000     -0.2000     -0.2000       0.000    
   9    0.000     -0.2000     -0.2000     -0.2000     -0.2000     -0.2000     -0.2000     -0.2000     -0.2000     -0.2000    
      -0.2000     -0.2000     -0.2000     -0.2000     -0.2000     -0.2000       0.000    
  10    0.000     -0.2000     -0.2000     -0.2000     -0.2000     -0.2000     -0.2000     -0.2000     -0.2000     -0.2000    
      -0.2000     -0.2000     -0.2000     -0.2000     -0.2000     -0.2000       0.000    
  11    0.000     -0.2000     -0.2000     -0.2000     -0.2000     -0.2000     -0.2000     -0.2000     -0.2000     -0.2000    
      -0.2000     -0.2000     -0.2000     -0.2000     -0.2000     -0.2000       0.000    
  12    0.000     -0.2000     -0.2000     -0.2000     -0.2000     -0.2000     -0.2000     -0.2000     -0.2000     -0.2000    
      -0.2000     -0.2000     -0.2000     -0.2000     -0.2000     -0.2000       0.000    
  13    0.000     -0.2000     -0.2000     -0.2000     -0.2000     -0.2000     -0.2000     -0.2000     -0.2000     -0.2000    
      -0.2000     -0.2000     -0.2000     -0.2000     -0.2000     -0.2000       0.000    
  14    0.000     -0.2000     -0.2000     -0.2000     -0.2000     -0.2000     -0.2000     -0.2000     -0.2000     -0.2000    
      -0.2000     -0.2000     -0.2000     -0.2000     -0.2000     -0.2000       0.000    
  15    0.000     -0.2000     -0.2000     -0.2000     -0.2000     -0.2000     -0.2000     -0.2000     -0.2000     -0.2000    
      -0.2000     -0.2000     -0.2000     -0.2000     -0.2000     -0.2000       0.000    
  16    0.000     -0.2000     -0.2000     -0.2000     -0.2000     -0.2000     -0.2000     -0.2000     -0.2000     -0.2000    
      -0.2000     -0.2000     -0.2000     -0.2000     -0.2000     -0.2000       0.000    
  17    0.000     -0.2000     -0.2000     -0.2000     -0.2000     -0.2000     -0.2000     -0.2000     -0.2000     -0.2000    
      -0.2000     -0.2000     -0.2000     -0.2000     -0.2000     -0.2000       0.000    
  18    0.000     -0.2000     -0.2000     -0.2000     -0.2000     -0.2000     -0.2000     -0.2000     -0.2000     -0.2000    
      -0.2000     -0.2000     -0.2000     -0.2000     -0.2000     -0.2000       0.000    
  19    0.000     -0.2000     -0.2000     -0.2000     -0.2000     -0.2000     -0.2000     -0.2000     -0.2000     -0.2000    
      -0.2000     -0.2000     -0.2000     -0.2000     -0.2000     -0.2000       0.000    
  20    0.000     -0.2000     -0.2000     -0.2000     -0.2000     -0.2000     -0.2000     -0.2000     -0.2000     -0.2000    
      -0.2000     -0.2000     -0.2000     -0.2000     -0.2000     -0.2000       0.000    
  21    0.000     -0.2000     -0.2000     -0.2000     -0.2000     -0.2000     -0.2000     -0.2000     -0.2000     -0.2000    
      -0.2000     -0.2000     -0.2000     -0.2000     -0.2000     -0.2000       0.000    
  22    0.000     -0.2000     -0.2000     -0.2000     -0.2000     -0.2000     -0.2000     -0.2000     -0.2000     -0.2000    
      -0.2000     -0.2000     -0.2000     -0.2000     -0.2000     -0.2000       0.000    
  23    0.000     -0.2000     -0.2000     -0.2000     -0.2000     -0.2000     -0.2000     -0.2000     -0.2000     -0.2000    
      -0.2000     -0.2000     -0.2000     -0.2000     -0.2000     -0.2000       0.000    
  24    0.000     -0.2000     -0.2000     -0.2000     -0.2000     -0.2000     -0.2000     -0.2000     -0.2000     -0.2000    
      -0.2000     -0.2000     -0.2000     -0.2000     -0.2000     -0.2000       0.000    
  25    0.000     -0.2000     -0.2000     -0.2000     -0.2000     -0.2000     -0.2000     -0.2000     -0.2000     -0.2000    
      -0.2000     -0.2000     -0.2000     -0.2000     -0.2000     -0.2000       0.000    
  26    0.000     -0.2000     -0.2000     -0.2000     -0.2000     -0.2000     -0.2000     -0.2000     -0.2000     -0.2000    
      -0.2000     -0.2000     -0.2000     -0.2000     -0.2000     -0.2000       0.000    
  27    0.000       0.000       0.000       0.000       0.000       0.000       0.000       0.000       0.000       0.000    
        0.000       0.000       0.000       0.000       0.000       0.000       0.000    


     0 Evapotranspiration parameters


     0 Recharge parameters
 TIMES FOR SPECIFIED-FLOW AND HEAD VALUES WILL BE READ ON UNIT  21 AND
 MULTIPLIED BY   1.000    .
     1 TIMES FOR SPECIFYING FLOWS AND HEADS:
                       1
                 ------------
                    0.000    

 CELL INDICIES AND SPECIFIED-HEAD VALUES WILL BE READ ON UNIT  21. HEAD VALUES
 WILL BE MULTIPLIED BY   1.000    .
 LAYER  ROW  COL IAUX             HEAD VALUES
 -------------------------------
    1    1    1   64   160.0    
    1    2    1   64   160.0    
    1    3    1   64   160.0    
    1    4    1   64   160.0    
    1    5    1   64   160.0    
    1    6    1   64   160.0    
    1    7    1   64   160.0    
    1    8    1   64   160.0    
    1    9    1   64   160.0    
    1   10    1   64   160.0    
    1   11    1   64   160.0    
    1   12    1   64   160.0    
    1   13    1   64   160.0    
    1   14    1   64   160.0    
    1   15    1   64   160.0    
    1   16    1   64   160.0    
    1   17    1   64   160.0    
    1   18    1   64   160.0    
    1   19    1   64   160.0    
    1   20    1   64   160.0    
    1   21    1   64   160.0    
    1   22    1   64   160.0    
    1   23    1   64   160.0    
    1   24    1   64   160.0    
    1   25    1   64   160.0    
    1   26    1   64   160.0    
    1   27    1   64   160.0    
    1    1   17   64   140.0    
    1    2   17   64   140.0    
    1    3   17   64   140.0    
    1    4   17   64   140.0    
    1    5   17   64   140.0    
    1    6   17   64   140.0    
    1    7   17   64   140.0    
    1    8   17   64   140.0    
    1    9   17   64   140.0    
    1   10   17   64   140.0    
    1   11   17   64   140.0    
    1   12   17   64   140.0    
    1   13   17   64   140.0    
    1   14   17   64   140.0    
    1   15   17   64   140.0    
    1   16   17   64   140.0    
    1   17   17   64   140.0    
    1   18   17   64   140.0    
    1   19   17   64   140.0    
    1   20   17   64   140.0    
    1   21   17   64   140.0    
    1   22   17   64   140.0    
    1   23   17   64   140.0    
    1   24   17   64   140.0    
    1   25   17   64   140.0    
    1   26   17   64   140.0    
    1   27   17   64   140.0    
    2    1    1   64   160.0    
    2    2    1   64   160.0    
    2    3    1   64   160.0    
    2    4    1   64   160.0    
    2    5    1   64   160.0    
    2    6    1   64   160.0    
    2    7    1   64   160.0    
    2    8    1   64   160.0    
    2    9    1   64   160.0    
    2   10    1   64   160.0    
    2   11    1   64   160.0    
    2   12    1   64   160.0    
    2   13    1   64   160.0    
    2   14    1   64   160.0    
    2   15    1   64   160.0    
    2   16    1   64   160.0    
    2   17    1   64   160.0    
    2   18    1   64   160.0    
    2   19    1   64   160.0    
    2   20    1   64   160.0    
    2   21    1   64   160.0    
    2   22    1   64   160.0    
    2   23    1   64   160.0    
    2   24    1   64   160.0    
    2   25    1   64   160.0    
    2   26    1   64   160.0    
    2   27    1   64   160.0    
    2    1   17   64   140.0    
    2    2   17   64   140.0    
    2    3   17   64   140.0    
    2    4   17   64   140.0    
    2    5   17   64   140.0    
    2    6   17   64   140.0    
    2    7   17   64   140.0    
    2    8   17   64   140.0    
    2    9   17   64   140.0    
    2   10   17   64   140.0    
    2   11   17   64   140.0    
    2   12   17   64   140.0    
    2   13   17   64   140.0    
    2   14   17   64   140.0    
    2   15   17   64   140.0    
    2   16   17   64   140.0    
    2   17   17   64   140.0    
    2   18   17   64   140.0    
    2   19   17   64   140.0    
    2   20   17   64   140.0    
    2   21   17   64   140.0    
    2   22   17   64   140.0    
    2   23   17   64   140.0    
    2   24   17   64   140.0    
    2   25   17   64   140.0    
    2   26   17   64   140.0    
    2   27   17   64   140.0    
    3    1    1   64   160.0    
    3    2    1   64   160.0    
    3    3    1   64   160.0    
    3    4    1   64   160.0    
    3    5    1   64   160.0    
    3    6    1   64   160.0    
    3    7    1   64   160.0    
    3    8    1   64   160.0    
    3    9    1   64   160.0    
    3   10    1   64   160.0    
    3   11    1   64   160.0    
    3   12    1   64   160.0    
    3   13    1   64   160.0    
    3   14    1   64   160.0    
    3   15    1   64   160.0    
    3   16    1   64   160.0    
    3   17    1   64   160.0    
    3   18    1   64   160.0    
    3   19    1   64   160.0    
    3   20    1   64   160.0    
    3   21    1   64   160.0    
    3   22    1   64   160.0    
    3   23    1   64   160.0    
    3   24    1   64   160.0    
    3   25    1   64   160.0    
    3   26    1   64   160.0    
    3   27    1   64   160.0    
    3    1   17   64   140.0    
    3    2   17   64   140.0    
    3    3   17   64   140.0    
    3    4   17   64   140.0    
    3    5   17   64   140.0    
    3    6   17   64   140.0    
    3    7   17   64   140.0    
    3    8   17   64   140.0    
    3    9   17   64   140.0    
    3   10   17   64   140.0    
    3   11   17   64   140.0    
    3   12   17   64   140.0    
    3   13   17   64   140.0    
    3   14   17   64   140.0    
    3   15   17   64   140.0    
    3   16   17   64   140.0    
    3   17   17   64   140.0    
    3   18   17   64   140.0    
    3   19   17   64   140.0    
    3   20   17   64   140.0    
    3   21   17   64   140.0    
    3   22   17   64   140.0    
    3   23   17   64   140.0    
    3   24   17   64   140.0    
    3   25   17   64   140.0    
    3   26   17   64   140.0    
    3   27   17   64   140.0    
    4    1    1   64   160.0    
    4    2    1   64   160.0    
    4    3    1   64   160.0    
    4    4    1   64   160.0    
    4    5    1   64   160.0    
    4    6    1   64   160.0    
    4    7    1   64   160.0    
    4    8    1   64   160.0    
    4    9    1   64   160.0    
    4   10    1   64   160.0    
    4   11    1   64   160.0    
    4   12    1   64   160.0    
    4   13    1   64   160.0    
    4   14    1   64   160.0    
    4   15    1   64   160.0    
    4   16    1   64   160.0    
    4   17    1   64   160.0    
    4   18    1   64   160.0    
    4   19    1   64   160.0    
    4   20    1   64   160.0    
    4   21    1   64   160.0    
    4   22    1   64   160.0    
    4   23    1   64   160.0    
    4   24    1   64   160.0    
    4   25    1   64   160.0    
    4   26    1   64   160.0    
    4   27    1   64   160.0    
    4    1   17   64   140.0    
    4    2   17   64   140.0    
    4    3   17   64   140.0    
    4    4   17   64   140.0    
    4    5   17   64   140.0    
    4    6   17   64   140.0    
    4    7   17   64   140.0    
    4    8   17   64   140.0    
    4    9   17   64   140.0    
    4   10   17   64   140.0    
    4   11   17   64   140.0    
    4   12   17   64   140.0    
    4   13   17   64   140.0    
    4   14   17   64   140.0    
    4   15   17   64   140.0    
    4   16   17   64   140.0    
    4   17   17   64   140.0    
    4   18   17   64   140.0    
    4   19   17   64   140.0    
    4   20   17   64   140.0    
    4   21   17   64   140.0    
    4   22   17   64   140.0    
    4   23   17   64   140.0    
    4   24   17   64   140.0    
    4   25   17   64   140.0    
    4   26   17   64   140.0    
    4   27   17   64   140.0    
    5    1    1   64   160.0    
    5    2    1   64   160.0    
    5    3    1   64   160.0    
    5    4    1   64   160.0    
    5    5    1   64   160.0    
    5    6    1   64   160.0    
    5    7    1   64   160.0    
    5    8    1   64   160.0    
    5    9    1   64   160.0    
    5   10    1   64   160.0    
    5   11    1   64   160.0    
    5   12    1   64   160.0    
    5   13    1   64   160.0    
    5   14    1   64   160.0    
    5   15    1   64   160.0    
    5   16    1   64   160.0    
    5   17    1   64   160.0    
    5   18    1   64   160.0    
    5   19    1   64   160.0    
    5   20    1   64   160.0    
    5   21    1   64   160.0    
    5   22    1   64   160.0    
    5   23    1   64   160.0    
    5   24    1   64   160.0    
    5   25    1   64   160.0    
    5   26    1   64   160.0    
    5   27    1   64   160.0    
    5    1   17   64   140.0    
    5    2   17   64   140.0    
    5    3   17   64   140.0    
    5    4   17   64   140.0    
    5    5   17   64   140.0    
    5    6   17   64   140.0    
    5    7   17   64   140.0    
    5    8   17   64   140.0    
    5    9   17   64   140.0    
    5   10   17   64   140.0    
    5   11   17   64   140.0    
    5   12   17   64   140.0    
    5   13   17   64   140.0    
    5   14   17   64   140.0    
    5   15   17   64   140.0    
    5   16   17   64   140.0    
    5   17   17   64   140.0    
    5   18   17   64   140.0    
    5   19   17   64   140.0    
    5   20   17   64   140.0    
    5   21   17   64   140.0    
    5   22   17   64   140.0    
    5   23   17   64   140.0    
    5   24   17   64   140.0    
    5   25   17   64   140.0    
    5   26   17   64   140.0    
    5   27   17   64   140.0    
    1    1    2   64   158.9    
    1    1    3   64   157.3    
    1    1    4   64   155.8    
    1    1    5   64   154.2    
    1    1    6   64   152.7    
    1    1    7   64   151.5    
    1    1    8   64   150.8    
    1    1    9   64   150.0    
    1    1   10   64   149.2    
    1    1   11   64   148.5    
    1    1   12   64   147.3    
    1    1   13   64   145.8    
    1    1   14   64   144.2    
    1    1   15   64   142.7    
    1    1   16   64   141.1    
    1   27    2   64   158.9    
    1   27    3   64   157.3    
    1   27    4   64   155.8    
    1   27    5   64   154.2    
    1   27    6   64   152.7    
    1   27    7   64   151.5    
    1   27    8   64   150.8    
    1   27    9   64   150.0    
    1   27   10   64   149.2    
    1   27   11   64   148.5    
    1   27   12   64   147.3    
    1   27   13   64   145.8    
    1   27   14   64   144.2    
    1   27   15   64   142.7    
    1   27   16   64   141.1    
    2    1    2   64   158.9    
    2    1    3   64   157.3    
    2    1    4   64   155.8    
    2    1    5   64   154.2    
    2    1    6   64   152.7    
    2    1    7   64   151.5    
    2    1    8   64   150.8    
    2    1    9   64   150.0    
    2    1   10   64   149.2    
    2    1   11   64   148.5    
    2    1   12   64   147.3    
    2    1   13   64   145.8    
    2    1   14   64   144.2    
    2    1   15   64   142.7    
    2    1   16   64   141.1    
    2   27    2   64   158.9    
    2   27    3   64   157.3    
    2   27    4   64   155.8    
    2   27    5   64   154.2    
    2   27    6   64   152.7    
    2   27    7   64   151.5    
    2   27    8   64   150.8    
    2   27    9   64   150.0    
    2   27   10   64   149.2    
    2   27   11   64   148.5    
    2   27   12   64   147.3    
    2   27   13   64   145.8    
    2   27   14   64   144.2    
    2   27   15   64   142.7    
    2   27   16   64   141.1    
    3    1    2   64   158.9    
    3    1    3   64   157.3    
    3    1    4   64   155.8    
    3    1    5   64   154.2    
    3    1    6   64   152.7    
    3    1    7   64   151.5    
    3    1    8   64   150.8    
    3    1    9   64   150.0    
    3    1   10   64   149.2    
    3    1   11   64   148.5    
    3    1   12   64   147.3    
    3    1   13   64   145.8    
    3    1   14   64   144.2    
    3    1   15   64   142.7    
    3    1   16   64   141.1    
    3   27    2   64   158.9    
    3   27    3   64   157.3    
    3   27    4   64   155.8    
    3   27    5   64   154.2    
    3   27    6   64   152.7    
    3   27    7   64   151.5    
    3   27    8   64   150.8    
    3   27    9   64   150.0    
    3   27   10   64   149.2    
    3   27   11   64   148.5    
    3   27   12   64   147.3    
    3   27   13   64   145.8    
    3   27   14   64   144.2    
    3   27   15   64   142.7    
    3   27   16   64   141.1    
    4    1    2   64   158.9    
    4    1    3   64   157.3    
    4    1    4   64   155.8    
    4    1    5   64   154.2    
    4    1    6   64   152.7    
    4    1    7   64   151.5    
    4    1    8   64   150.8    
    4    1    9   64   150.0    
    4    1   10   64   149.2    
    4    1   11   64   148.5    
    4    1   12   64   147.3    
    4    1   13   64   145.8    
    4    1   14   64   144.2    
    4    1   15   64   142.7    
    4    1   16   64   141.1    
    4   27    2   64   158.9    
    4   27    3   64   157.3    
    4   27    4   64   155.8    
    4   27    5   64   154.2    
    4   27    6   64   152.7    
    4   27    7   64   151.5    
    4   27    8   64   150.8    
    4   27    9   64   150.0    
    4   27   10   64   149.2    
    4   27   11   64   148.5    
    4   27   12   64   147.3    
    4   27   13   64   145.8    
    4   27   14   64   144.2    
    4   27   15   64   142.7    
    4   27   16   64   141.1    
    5    1    2   64   158.9    
    5    1    3   64   157.3    
    5    1    4   64   155.8    
    5    1    5   64   154.2    
    5    1    6   64   152.7    
    5    1    7   64   151.5    
    5    1    8   64   150.8    
    5    1    9   64   150.0    
    5    1   10   64   149.2    
    5    1   11   64   148.5    
    5    1   12   64   147.3    
    5    1   13   64   145.8    
    5    1   14   64   144.2    
    5    1   15   64   142.7    
    5    1   16   64   141.1    
    5   27    2   64   158.9    
    5   27    3   64   157.3    
    5   27    4   64   155.8    
    5   27    5   64   154.2    
    5   27    6   64   152.7    
    5   27    7   64   151.5    
    5   27    8   64   150.8    
    5   27    9   64   150.0    
    5   27   10   64   149.2    
    5   27   11   64   148.5    
    5   27   12   64   147.3    
    5   27   13   64   145.8    
    5   27   14   64   144.2    
    5   27   15   64   142.7    
    5   27   16   64   141.1    


   STREAM NETWORK DESCRIPTION: 

   LAYER    ROW    COL   SEGMENT   REACH     LENGTH
                          NUMBER   NUMBER    IN CELL
   --------------------------------------------------
      1      2      5       1        1    1.0000E+03
      1      3      5       1        2    1.0000E+03
      1      4      5       1        3    1.0000E+03
      1      4      6       1        4    1.0000E+03
      1      4      7       1        5    5.0000E+02
      1      4      8       1        6    7.5000E+02
      1      5      8       1        7    1.0000E+03
      1      6      8       1        8    1.0000E+03
      1     12      9       2        1    1.0000E+03
      1     13      9       2        2    1.0000E+03
      1     14     10       2        3    5.5900E+02
      1     14     10       2        4    5.5900E+02
      1     15     10       2        5    1.0000E+03
      1     16     10       2        6    1.0000E+03
      1     22     10       3        1    1.0000E+03
      1     23     10       3        2    7.5000E+02
      1     23     11       3        3    5.0000E+02
      1     23     12       3        4    1.0000E+03
      1     23     13       3        5    1.0000E+03
      1     23     14       3        6    1.0000E+03
      1     23     15       3        7    1.0000E+03
      1     23     16       3        8    1.0000E+03






   7 GAGING STATIONS WERE SPECIFIED.
     (Lakes are identified by a negative value of the Lake Number)
     RECORDS WILL BE WRITTEN TO SEPARATE OUTPUT FILES REPRESENTED BY FOLLOWING UNIT NUMBERS:

 Stream Gages:
  GAGE #   SEGMENT   REACH   UNIT   OUTTYPE
       3       1       8      39       1
       4       2       1      40       2
       5       2       6      41       3
       6       3       1      42       4
       7       3       8      43       1
 Lake Gages:
  GAGE #    LAKE     UNIT   OUTTYPE
       1      -1     -37       2
       2      -2     -38       2




1
                            STRESS PERIOD NO.    1, LENGTH =   1500.000    
                            -----------------------------------------------

                              NUMBER OF TIME STEPS =   200

                               MULTIPLIER FOR DELT =     1.005

                            INITIAL TIME STEP SIZE =   4.382080    



                         ET SURFACE
 READING ON UNIT   11 WITH FORMAT: (19F6.1)            

         1     2     3     4     5     6     7     8     9    10    11    12    13    14    15    16    17
 .........................................................................................................
   1  160.0 159.0 157.4 155.9 154.3 152.7 151.6 150.8 150.0 149.2 148.4 147.3 145.7 144.1 142.6 141.0 140.0
   2  160.0 159.0 157.4 155.9 154.3 152.7 151.6 150.8 150.0 149.2 148.4 147.3 145.7 144.1 142.6 141.0 140.0
   3  160.0 159.0 157.4 155.9 154.3 152.7 151.6 150.8 150.0 149.2 148.4 147.3 145.7 144.1 142.6 141.0 140.0
   4  160.0 159.0 157.4 155.9 154.3 152.7 151.6 150.8 150.0 149.2 148.4 147.3 145.7 144.1 142.6 141.0 140.0
   5  160.0 159.0 157.4 155.9 154.3 152.7 151.6 150.8 150.0 149.2 148.4 147.3 145.7 144.1 142.6 141.0 140.0
   6  160.0 159.0 157.4 155.9 154.3 152.7 151.6 150.8 150.0 149.2 148.4 147.3 145.7 144.1 142.6 141.0 140.0
   7  160.0 159.0 157.4 155.9 154.3 152.7 105.0 105.0 105.0 105.0 105.0 147.3 145.7 144.1 142.6 141.0 140.0
   8  160.0 159.0 157.4 155.9 154.3 152.7 105.0  95.0  95.0  95.0 105.0 147.3 145.7 144.1 142.6 141.0 140.0
   9  160.0 159.0 157.4 155.9 154.3 152.7 105.0  95.0  95.0  95.0 105.0 147.3 145.7 144.1 142.6 141.0 140.0
  10  160.0 159.0 157.4 155.9 154.3 152.7 105.0  95.0  95.0  95.0 105.0 147.3 145.7 144.1 142.6 141.0 140.0
  11  160.0 159.0 157.4 155.9 154.3 152.7 105.0 105.0 105.0 105.0 105.0 147.3 145.7 144.1 142.6 141.0 140.0
  12  160.0 159.0 157.4 155.9 154.3 152.7 151.6 150.8 150.0 149.2 148.4 147.3 145.7 144.1 142.6 141.0 140.0
  13  160.0 159.0 157.4 155.9 154.3 152.7 151.6 150.8 150.0 149.2 148.4 147.3 145.7 144.1 142.6 141.0 140.0
  14  160.0 159.0 157.4 155.9 154.3 152.7 151.6 150.8 150.0 149.2 148.4 147.3 145.7 144.1 142.6 141.0 140.0
  15  160.0 159.0 157.4 155.9 154.3 152.7 151.6 150.8 150.0 149.2 148.4 147.3 145.7 144.1 142.6 141.0 140.0
  16  160.0 159.0 157.4 155.9 154.3 152.7 151.6 150.8 150.0 149.2 148.4 147.3 145.7 144.1 142.6 141.0 140.0
  17  160.0 159.0 157.4 155.9 154.3 152.7 105.0 105.0 105.0 105.0 105.0 147.3 145.7 144.1 142.6 141.0 140.0
  18  160.0 159.0 157.4 155.9 154.3 152.7 105.0  95.0  95.0  95.0 105.0 147.3 145.7 144.1 142.6 141.0 140.0
  19  160.0 159.0 157.4 155.9 154.3 152.7 105.0  95.0  95.0  95.0 105.0 147.3 145.7 144.1 142.6 141.0 140.0
  20  160.0 159.0 157.4 155.9 154.3 152.7 105.0  95.0  95.0  95.0 105.0 147.3 145.7 144.1 142.6 141.0 140.0
  21  160.0 159.0 157.4 155.9 154.3 152.7 105.0 105.0 105.0 105.0 105.0 147.3 145.7 144.1 142.6 141.0 140.0
  22  160.0 159.0 157.4 155.9 154.3 152.7 151.6 150.8 150.0 149.2 148.4 147.3 145.7 144.1 142.6 141.0 140.0
  23  160.0 159.0 157.4 155.9 154.3 152.7 151.6 150.8 150.0 149.2 148.4 147.3 145.7 144.1 142.6 141.0 140.0
  24  160.0 159.0 157.4 155.9 154.3 152.7 151.6 150.8 150.0 149.2 148.4 147.3 145.7 144.1 142.6 141.0 140.0
  25  160.0 159.0 157.4 155.9 154.3 152.7 151.6 150.8 150.0 149.2 148.4 147.3 145.7 144.1 142.6 141.0 140.0
  26  160.0 159.0 157.4 155.9 154.3 152.7 151.6 150.8 150.0 149.2 148.4 147.3 145.7 144.1 142.6 141.0 140.0
  27  160.0 159.0 157.4 155.9 154.3 152.7 151.6 150.8 150.0 149.2 148.4 147.3 145.7 144.1 142.6 141.0 140.0

  EVAPOTRANSPIRATION RATE =  1.410000E-02

         EXTINCTION DEPTH =   15.0000    

                 RECHARGE =  1.160000E-02



 CLASSIFICATION & COUNT OF STREAM SEGMENTS BASED ON SOURCE OF INFLOW:

                HEADWATER     DIVERSION     RECEIVES TRIBUTARY FLOW
                ---------     ---------     -----------------------
                     1              2               0

                     INPUT DATA FOR EACH STREAM SEGMENT
 ---------------------------------------------------------------------------------------------

 SEGMENT    SEG.     INFLOW   OVERLAND   STREAM    STREAM   ICALC  OUTFLOW  DIVERSION PRIORITY
    NO.    LENGTH     RATE     RUNOFF      ET       PPT.    METH.  TO SEG.  FROM SEG.    NO.

      1  7.250E+03 6.912E+05 0.000E+00 0.000E+00 0.000E+00    1       -1        0        0
      2  5.118E+03 0.000E+00 0.000E+00 0.000E+00 0.000E+00    1       -2       -1        0
      3  7.250E+03 0.000E+00 0.000E+00 0.000E+00 0.000E+00    1        0       -2        0


         STREAMBED PROPERTIES AND STREAM DIMENSIONS

 SEGMENT     BED HYD. COND.      BED THICKNESS     ELEV.-TOP OF BED     WIDTH OF STREAM     DEPTH OF STREAM    STREAM ROUGHNESS
    No.     UPPER     LOWER     UPPER     LOWER     UPPER     LOWER     UPPER     LOWER     UPPER     LOWER   CHANNEL      BANK

     1  5.000E-01 5.000E-01 5.000E-01 5.000E-01 1.245E+02 1.165E+02 5.000E+00 5.000E+00                     5.000E-02
     2  5.000E-01 5.000E-01 5.000E-01 5.000E-01 1.148E+02 1.107E+02 5.000E+00 5.000E+00                     5.000E-02
     3  5.000E-01 5.000E-01 5.000E-01 5.000E-01 1.094E+02 1.026E+02 5.000E+00 5.000E+00                     5.000E-02





 LAKE PACKAGE ACTIVE:  CALCULATED LAKE STAGE FOR EACH TIME STEP WILL BE STORED IN HNEW ARRAY.

 INITIAL LAKE STAGE:  LAKE    STAGE

                        1   130.000
                        2   130.000




 If any subsequent steady-state stress periods, min. and max. stages for each lake will be read in Record 9a.





                      LAKE ID ARRAY FOR LAYER   1
 READING ON UNIT   16 WITH FORMAT: (24I3)              

        1   2   3   4   5   6   7   8   9  10  11  12  13  14  15  16  17
 ........................................................................
   1    0   0   0   0   0   0   0   0   0   0   0   0   0   0   0   0   0
   2    0   0   0   0   0   0   0   0   0   0   0   0   0   0   0   0   0
   3    0   0   0   0   0   0   0   0   0   0   0   0   0   0   0   0   0
   4    0   0   0   0   0   0   0   0   0   0   0   0   0   0   0   0   0
   5    0   0   0   0   0   0   0   0   0   0   0   0   0   0   0   0   0
   6    0   0   0   0   0   0   0   0   0   0   0   0   0   0   0   0   0
   7    0   0   0   0   0   0   1   1   1   1   1   0   0   0   0   0   0
   8    0   0   0   0   0   0   1   1   1   1   1   0   0   0   0   0   0
   9    0   0   0   0   0   0   1   1   1   1   1   0   0   0   0   0   0
  10    0   0   0   0   0   0   1   1   1   1   1   0   0   0   0   0   0
  11    0   0   0   0   0   0   1   1   1   1   1   0   0   0   0   0   0
  12    0   0   0   0   0   0   0   0   0   0   0   0   0   0   0   0   0
  13    0   0   0   0   0   0   0   0   0   0   0   0   0   0   0   0   0
  14    0   0   0   0   0   0   0   0   0   0   0   0   0   0   0   0   0
  15    0   0   0   0   0   0   0   0   0   0   0   0   0   0   0   0   0
  16    0   0   0   0   0   0   0   0   0   0   0   0   0   0   0   0   0
  17    0   0   0   0   0   0   2   2   2   2   2   0   0   0   0   0   0
  18    0   0   0   0   0   0   2   2   2   2   2   0   0   0   0   0   0
  19    0   0   0   0   0   0   2   2   2   2   2   0   0   0   0   0   0
  20    0   0   0   0   0   0   2   2   2   2   2   0   0   0   0   0   0
  21    0   0   0   0   0   0   2   2   2   2   2   0   0   0   0   0   0
  22    0   0   0   0   0   0   0   0   0   0   0   0   0   0   0   0   0
  23    0   0   0   0   0   0   0   0   0   0   0   0   0   0   0   0   0
  24    0   0   0   0   0   0   0   0   0   0   0   0   0   0   0   0   0
  25    0   0   0   0   0   0   0   0   0   0   0   0   0   0   0   0   0
  26    0   0   0   0   0   0   0   0   0   0   0   0   0   0   0   0   0
  27    0   0   0   0   0   0   0   0   0   0   0   0   0   0   0   0   0



                      LAKE ID ARRAY FOR LAYER   2
 READING ON UNIT   16 WITH FORMAT: (24I3)              

        1   2   3   4   5   6   7   8   9  10  11  12  13  14  15  16  17
 ........................................................................
   1    0   0   0   0   0   0   0   0   0   0   0   0   0   0   0   0   0
   2    0   0   0   0   0   0   0   0   0   0   0   0   0   0   0   0   0
   3    0   0   0   0   0   0   0   0   0   0   0   0   0   0   0   0   0
   4    0   0   0   0   0   0   0   0   0   0   0   0   0   0   0   0   0
   5    0   0   0   0   0   0   0   0   0   0   0   0   0   0   0   0   0
[...]
 LAKE     USE         INFLUX       IN VOL.    DISCREPANCY
   1   0.0000E+00   0.0000E+00  -8.1067E+07      0.000
   2   0.0000E+00   0.0000E+00  -1.1271E+08      0.000
 --------------------------------------------------------------------------------

 
 SOLVING FOR HEAD 
     2 ITERATIONS FOR TIME STEP 199 IN STRESS PERIOD    1

 HEAD/DRAWDOWN PRINTOUT FLAG = 0     TOTAL BUDGET PRINTOUT FLAG = 0
 CELL-BY-CELL FLOW TERM FLAG = 1

 OUTPUT FLAGS FOR ALL LAYERS ARE THE SAME:
   HEAD    DRAWDOWN  HEAD  DRAWDOWN
 PRINTOUT  PRINTOUT  SAVE    SAVE
 ----------------------------------
     0         0       0       0



 STREAM LISTING     PERIOD      1   STEP      199

 LAYER ROW COL. STREAM  RCH.  FLOW INTO     FLOW TO   FLOW OUT OF   OVRLND.     DIRECT     STREAM       STREAM     STREAM     STREAM   STREAMBED  STREAMBED
                SEG.NO.  NO.  STRM. RCH.    AQUIFER    STRM. RCH.    RUNOFF     PRECIP       ET          HEAD       DEPTH      WIDTH   CONDCTNC.   GRADIENT

   1    2    5     1     1    6.9120E+05 -8.0029E+04   7.7123E+05  0.000E+00  0.000E+00  0.000E+00  1.25330E+02  1.382E+00  5.000E+00  5.000E+03 -3.201E+01
   1    3    5     1     2    7.7123E+05 -5.6364E+04   8.2759E+05  0.000E+00  0.000E+00  0.000E+00  1.24303E+02  1.458E+00  5.000E+00  5.000E+03 -2.255E+01
   1    4    5     1     3    8.2759E+05 -5.3364E+04   8.8096E+05  0.000E+00  0.000E+00  0.000E+00  1.23258E+02  1.517E+00  5.000E+00  5.000E+03 -2.135E+01
   1    4    6     1     4    8.8096E+05 -4.3622E+04   9.2458E+05  0.000E+00  0.000E+00  0.000E+00  1.22206E+02  1.568E+00  5.000E+00  5.000E+03 -1.745E+01
   1    4    7     1     5    9.2458E+05 -2.1238E+04   9.4582E+05  0.000E+00  0.000E+00  0.000E+00  1.21412E+02  1.602E+00  5.000E+00  2.500E+03 -1.699E+01
   1    4    8     1     6    9.4582E+05 -3.4874E+04   9.8069E+05  0.000E+00  0.000E+00  0.000E+00  1.20751E+02  1.630E+00  5.000E+00  3.750E+03 -1.860E+01
   1    5    8     1     7    9.8069E+05 -3.6826E+04   1.0175E+06  0.000E+00  0.000E+00  0.000E+00  1.19822E+02  1.667E+00  5.000E+00  5.000E+03 -1.473E+01
   1    6    8     1     8    1.0175E+06 -2.5374E+04   1.0429E+06  0.000E+00  0.000E+00  0.000E+00  1.18749E+02  1.697E+00  5.000E+00  5.000E+03 -1.015E+01
   1   12    9     2     1    1.3472E+06 -2.7295E+04   1.3745E+06  0.000E+00  0.000E+00  0.000E+00  1.16632E+02  2.192E+00  5.000E+00  5.000E+03 -1.092E+01
   1   13    9     2     2    1.3745E+06 -4.3002E+04   1.4175E+06  0.000E+00  0.000E+00  0.000E+00  1.15845E+02  2.226E+00  5.000E+00  5.000E+03 -1.720E+01
   1   14   10     2     3    1.4175E+06 -2.3219E+04   1.4407E+06  0.000E+00  0.000E+00  0.000E+00  1.15237E+02  2.258E+00  5.000E+00  2.795E+03 -1.661E+01
   1   14   10     2     4    1.4407E+06 -2.4438E+04   1.4652E+06  0.000E+00  0.000E+00  0.000E+00  1.14801E+02  2.280E+00  5.000E+00  2.795E+03 -1.749E+01
   1   15   10     2     5    1.4652E+06 -4.1064E+04   1.5062E+06  0.000E+00  0.000E+00  0.000E+00  1.14192E+02  2.311E+00  5.000E+00  5.000E+03 -1.643E+01
   1   16   10     2     6    1.5062E+06 -2.7441E+04   1.5337E+06  0.000E+00  0.000E+00  0.000E+00  1.13403E+02  2.343E+00  5.000E+00  5.000E+03 -1.098E+01
   1   22   10     3     1    1.8641E+06 -2.7845E+04   1.8919E+06  0.000E+00  0.000E+00  0.000E+00  1.11505E+02  2.549E+00  5.000E+00  5.000E+03 -1.114E+01
   1   23   10     3     2    1.8919E+06 -4.0104E+04   1.9321E+06  0.000E+00  0.000E+00  0.000E+00  1.10705E+02  2.577E+00  5.000E+00  3.750E+03 -2.139E+01
   1   23   11     3     3    1.9321E+06 -2.3769E+04   1.9558E+06  0.000E+00  0.000E+00  0.000E+00  1.10139E+02  2.602E+00  5.000E+00  2.500E+03 -1.902E+01
   1   23   12     3     4    1.9558E+06 -4.7161E+04   2.0030E+06  0.000E+00  0.000E+00  0.000E+00  1.09458E+02  2.631E+00  5.000E+00  5.000E+03 -1.886E+01
   1   23   13     3     5    2.0030E+06 -5.0804E+04   2.0538E+06  0.000E+00  0.000E+00  0.000E+00  1.08551E+02  2.669E+00  5.000E+00  5.000E+03 -2.032E+01
   1   23   14     3     6    2.0538E+06 -5.4520E+04   2.1083E+06  0.000E+00  0.000E+00  0.000E+00  1.07647E+02  2.711E+00  5.000E+00  5.000E+03 -2.181E+01
   1   23   15     3     7    2.1083E+06 -6.1863E+04   2.1702E+06  0.000E+00  0.000E+00  0.000E+00  1.06746E+02  2.756E+00  5.000E+00  5.000E+03 -2.475E+01
   1   23   16     3     8    2.1702E+06 -9.0028E+04   2.2602E+06  0.000E+00  0.000E+00  0.000E+00  1.05859E+02  2.814E+00  5.000E+00  5.000E+03 -3.601E+01





     0  LAKE CELLS ARE DRY.

 PERIOD     1     TIME STEP   199     TIME STEP LENGTH  1.1764E+01
 PERIOD TIME  1.4882E+03     TOTAL SIMULATION TIME  1.4882E+03


                 HYDROLOGIC BUDGET SUMMARIES FOR SIMULATED LAKES
     (ALL FLUID FLUXES ARE VOLUMES ADDED TO THE LAKE DURING PRESENT TIME STEP)
     -------------------------------------------------------------------------
 LAKE    STAGE         VOLUME     VOL.CHANGE      PRECIP     EVAPORATION        RUNOFF
   1   117.0291     8.5181E+07    8.0000E+00    8.5290E+05    7.5732E+05    0.0000E+00
   2   111.9661     5.3537E+07    2.4000E+01    8.5290E+05    7.5732E+05    0.0000E+00

            GROUND WATER            SURFACE WATER        WATER
 LAKE    INFLOW     OUTFLOW      INFLOW     OUTFLOW       USE
   1  3.4846E+06  0.0000E+00  1.2269E+07  1.5849E+07  0.0000E+00
   2  3.7916E+06  0.0000E+00  1.8042E+07  2.1930E+07  0.0000E+00

      CONNECTED LAKE   TIME-STEP         STAGE-CHANGE          PERCENT
 LAKE    INFLUX      SURFACE AREA   TIME STEP  CUMULATIVE    DISCREPANCY
   1   0.0000E+00     6.2500E+06   8.7822E-07 -1.2971E+01       0.000
   2   0.0000E+00     6.2500E+06   4.4664E-06 -1.8034E+01       0.000
 --------------------------------------------------------------------------------



            CUMULATIVE HYDROLOGIC BUDGET SUMMARIES FOR SIMULATED LAKES
     (ALL FLUID FLUXES ARE SUMS OF VOLUMES ADDED TO THE LAKE SINCE INITIAL TIME)
     ---------------------------------------------------------------------------
 LAKE       PRECIP       EVAP       RUNOFF
   1     1.0789E+08  9.5801E+07  0.0000E+00
   2     1.0789E+08  9.5801E+07  0.0000E+00

            GROUND WATER            SURFACE WATER
 LAKE    INFLOW     OUTFLOW      INFLOW     OUTFLOW
   1  3.6436E+08  1.5644E+06  1.4853E+09  1.9413E+09
   2  4.0457E+08  1.4259E+06  2.1739E+09  2.7018E+09

         WATER    CONNECTED LAKE   CHANGE       PERCENT
 LAKE     USE         INFLUX       IN VOL.    DISCREPANCY
   1   0.0000E+00   0.0000E+00  -8.1067E+07      0.000
   2   0.0000E+00   0.0000E+00  -1.1271E+08      0.000
 --------------------------------------------------------------------------------

 
 SOLVING FOR HEAD 
     2 ITERATIONS FOR TIME STEP 200 IN STRESS PERIOD    1

 MAXIMUM HEAD CHANGE FOR EACH ITERATION:

    HEAD CHANGE   HEAD CHANGE   HEAD CHANGE   HEAD CHANGE   HEAD CHANGE
  LAYER,ROW,COL LAYER,ROW,COL LAYER,ROW,COL LAYER,ROW,COL LAYER,ROW,COL
 ----------------------------------------------------------------------
     0.1483E-03    0.7796E-04
  (  1, 14,  6) (  5, 14,  7)


 HEAD/DRAWDOWN PRINTOUT FLAG = 1     TOTAL BUDGET PRINTOUT FLAG = 1
 CELL-BY-CELL FLOW TERM FLAG = 1

 OUTPUT FLAGS FOR EACH LAYER:
          HEAD    DRAWDOWN  HEAD  DRAWDOWN
 LAYER  PRINTOUT  PRINTOUT  SAVE    SAVE
 -----------------------------------------
    1       0         0       0       0
    2       0         0       0       0
    3       0         0       0       0
    4       0         0       0       0
    5       1         0       0       0



 STREAM LISTING     PERIOD      1   STEP      200

 LAYER ROW COL. STREAM  RCH.  FLOW INTO     FLOW TO   FLOW OUT OF   OVRLND.     DIRECT     STREAM       STREAM     STREAM     STREAM   STREAMBED  STREAMBED
                SEG.NO.  NO.  STRM. RCH.    AQUIFER    STRM. RCH.    RUNOFF     PRECIP       ET          HEAD       DEPTH      WIDTH   CONDCTNC.   GRADIENT

   1    2    5     1     1    6.9120E+05 -8.0030E+04   7.7123E+05  0.000E+00  0.000E+00  0.000E+00  1.25330E+02  1.382E+00  5.000E+00  5.000E+03 -3.201E+01
   1    3    5     1     2    7.7123E+05 -5.6364E+04   8.2759E+05  0.000E+00  0.000E+00  0.000E+00  1.24303E+02  1.458E+00  5.000E+00  5.000E+03 -2.255E+01
   1    4    5     1     3    8.2759E+05 -5.3364E+04   8.8096E+05  0.000E+00  0.000E+00  0.000E+00  1.23258E+02  1.517E+00  5.000E+00  5.000E+03 -2.135E+01
   1    4    6     1     4    8.8096E+05 -4.3622E+04   9.2458E+05  0.000E+00  0.000E+00  0.000E+00  1.22206E+02  1.568E+00  5.000E+00  5.000E+03 -1.745E+01
   1    4    7     1     5    9.2458E+05 -2.1238E+04   9.4582E+05  0.000E+00  0.000E+00  0.000E+00  1.21412E+02  1.602E+00  5.000E+00  2.500E+03 -1.699E+01
   1    4    8     1     6    9.4582E+05 -3.4874E+04   9.8069E+05  0.000E+00  0.000E+00  0.000E+00  1.20751E+02  1.630E+00  5.000E+00  3.750E+03 -1.860E+01
   1    5    8     1     7    9.8069E+05 -3.6826E+04   1.0175E+06  0.000E+00  0.000E+00  0.000E+00  1.19822E+02  1.667E+00  5.000E+00  5.000E+03 -1.473E+01
   1    6    8     1     8    1.0175E+06 -2.5374E+04   1.0429E+06  0.000E+00  0.000E+00  0.000E+00  1.18749E+02  1.697E+00  5.000E+00  5.000E+03 -1.015E+01
   1   12    9     2     1    1.3472E+06 -2.7295E+04   1.3745E+06  0.000E+00  0.000E+00  0.000E+00  1.16632E+02  2.192E+00  5.000E+00  5.000E+03 -1.092E+01
   1   13    9     2     2    1.3745E+06 -4.3002E+04   1.4175E+06  0.000E+00  0.000E+00  0.000E+00  1.15845E+02  2.226E+00  5.000E+00  5.000E+03 -1.720E+01
   1   14   10     2     3    1.4175E+06 -2.3219E+04   1.4407E+06  0.000E+00  0.000E+00  0.000E+00  1.15237E+02  2.258E+00  5.000E+00  2.795E+03 -1.661E+01
   1   14   10     2     4    1.4407E+06 -2.4439E+04   1.4652E+06  0.000E+00  0.000E+00  0.000E+00  1.14801E+02  2.280E+00  5.000E+00  2.795E+03 -1.749E+01
   1   15   10     2     5    1.4652E+06 -4.1064E+04   1.5062E+06  0.000E+00  0.000E+00  0.000E+00  1.14192E+02  2.311E+00  5.000E+00  5.000E+03 -1.643E+01
   1   16   10     2     6    1.5062E+06 -2.7441E+04   1.5337E+06  0.000E+00  0.000E+00  0.000E+00  1.13403E+02  2.343E+00  5.000E+00  5.000E+03 -1.098E+01
   1   22   10     3     1    1.8641E+06 -2.7845E+04   1.8920E+06  0.000E+00  0.000E+00  0.000E+00  1.11505E+02  2.549E+00  5.000E+00  5.000E+03 -1.114E+01
   1   23   10     3     2    1.8920E+06 -4.0104E+04   1.9321E+06  0.000E+00  0.000E+00  0.000E+00  1.10705E+02  2.577E+00  5.000E+00  3.750E+03 -2.139E+01
   1   23   11     3     3    1.9321E+06 -2.3769E+04   1.9558E+06  0.000E+00  0.000E+00  0.000E+00  1.10139E+02  2.602E+00  5.000E+00  2.500E+03 -1.902E+01
   1   23   12     3     4    1.9558E+06 -4.7162E+04   2.0030E+06  0.000E+00  0.000E+00  0.000E+00  1.09458E+02  2.631E+00  5.000E+00  5.000E+03 -1.886E+01
   1   23   13     3     5    2.0030E+06 -5.0805E+04   2.0538E+06  0.000E+00  0.000E+00  0.000E+00  1.08551E+02  2.669E+00  5.000E+00  5.000E+03 -2.032E+01
   1   23   14     3     6    2.0538E+06 -5.4520E+04   2.1083E+06  0.000E+00  0.000E+00  0.000E+00  1.07647E+02  2.711E+00  5.000E+00  5.000E+03 -2.181E+01
   1   23   15     3     7    2.1083E+06 -6.1863E+04   2.1702E+06  0.000E+00  0.000E+00  0.000E+00  1.06746E+02  2.756E+00  5.000E+00  5.000E+03 -2.475E+01
   1   23   16     3     8    2.1702E+06 -9.0028E+04   2.2602E+06  0.000E+00  0.000E+00  0.000E+00  1.05859E+02  2.814E+00  5.000E+00  5.000E+03 -3.601E+01





     0  LAKE CELLS ARE DRY.

 PERIOD     1     TIME STEP   200     TIME STEP LENGTH  1.1823E+01
 PERIOD TIME  1.5000E+03     TOTAL SIMULATION TIME  1.5000E+03


                 HYDROLOGIC BUDGET SUMMARIES FOR SIMULATED LAKES
     (ALL FLUID FLUXES ARE VOLUMES ADDED TO THE LAKE DURING PRESENT TIME STEP)
     -------------------------------------------------------------------------
 LAKE    STAGE         VOLUME     VOL.CHANGE      PRECIP     EVAPORATION        RUNOFF
   1   117.0291     8.5181E+07    8.0000E+00    8.5716E+05    7.6110E+05    0.0000E+00
   2   111.9661     5.3537E+07    1.2000E+01    8.5716E+05    7.6110E+05    0.0000E+00

            GROUND WATER            SURFACE WATER        WATER
 LAKE    INFLOW     OUTFLOW      INFLOW     OUTFLOW       USE
   1  3.5020E+06  0.0000E+00  1.2330E+07  1.5928E+07  0.0000E+00
   2  3.8106E+06  0.0000E+00  1.8133E+07  2.2039E+07  0.0000E+00

      CONNECTED LAKE   TIME-STEP         STAGE-CHANGE          PERCENT
 LAKE    INFLUX      SURFACE AREA   TIME STEP  CUMULATIVE    DISCREPANCY
   1   0.0000E+00     6.2500E+06   7.6439E-07 -1.2971E+01       0.000
   2   0.0000E+00     6.2500E+06   1.2965E-06 -1.8034E+01       0.000
 --------------------------------------------------------------------------------



            CUMULATIVE HYDROLOGIC BUDGET SUMMARIES FOR SIMULATED LAKES
     (ALL FLUID FLUXES ARE SUMS OF VOLUMES ADDED TO THE LAKE SINCE INITIAL TIME)
     ---------------------------------------------------------------------------
 LAKE       PRECIP       EVAP       RUNOFF
   1     1.0875E+08  9.6562E+07  0.0000E+00
   2     1.0875E+08  9.6562E+07  0.0000E+00

            GROUND WATER            SURFACE WATER
 LAKE    INFLOW     OUTFLOW      INFLOW     OUTFLOW
   1  3.6787E+08  1.5644E+06  1.4977E+09  1.9572E+09
   2  4.0838E+08  1.4259E+06  2.1920E+09  2.7238E+09

         WATER    CONNECTED LAKE   CHANGE       PERCENT
 LAKE     USE         INFLUX       IN VOL.    DISCREPANCY
   1   0.0000E+00   0.0000E+00  -8.1067E+07      0.000
   2   0.0000E+00   0.0000E+00  -1.1271E+08      0.000
 --------------------------------------------------------------------------------

1
              HEAD IN LAYER   5 AT END OF TIME STEP 200 IN STRESS PERIOD    1
  ---------------------------------------------------------------------------

          1      2      3      4      5      6      7      8      9     10
 .........................................................................
   1   160.0  158.9  157.3  155.8  154.2  152.7  151.5  150.8  150.0  149.2
   2   160.0  158.2  155.3  151.1  141.4  146.7  147.2  147.2  147.0  146.6
   3   160.0  157.6  153.6  147.6  135.6  139.9  140.8  141.3  142.1  142.8
   4   160.0  157.3  153.0  146.7  134.0  130.9  129.9  130.1  135.4  138.2
   5   160.0  157.3  153.3  148.3  141.8  136.2  131.3  127.2  131.5  134.5
   6   160.0  157.4  153.6  149.3  143.7  136.2  128.4  123.8  126.1  128.1
   7   160.0  157.5  153.7  149.5  143.7  133.6  117.9  117.3  117.3  117.4
   8   160.0  157.5  153.8  149.6  143.7  132.8  117.5  117.1  117.0  117.1
   9   160.0  157.5  153.9  149.8  143.8  132.8  117.5  117.0  117.0  117.0
  10   160.0  157.6  154.0  150.0  144.2  133.3  117.6  117.1  117.0  117.1
  11   160.0  157.6  154.1  150.2  144.7  134.7  118.0  117.4  117.2  117.3
  12   160.0  157.6  154.3  150.6  145.9  138.7  130.8  126.5  122.1  125.0
  13   160.0  157.7  154.4  151.1  147.0  141.5  135.8  131.0  124.5  127.8
  14   160.0  157.7  154.5  151.2  147.3  142.4  137.6  133.6  128.9  123.6
  15   160.0  157.7  154.4  151.0  146.9  141.4  136.2  132.3  127.8  122.4
  16   160.0  157.6  154.2  150.5  145.5  137.8  129.5  125.5  122.3  118.9
  17   160.0  157.6  154.1  150.1  144.2  132.7  113.1  112.4  112.3  112.2
  18   160.0  157.6  154.1  150.0  143.7  131.1  112.6  112.0  112.0  112.0
  19   160.0  157.6  154.1  149.9  143.6  130.7  112.6  112.0  112.0  112.0
  20   160.0  157.6  154.2  150.1  143.8  131.3  112.6  112.0  112.0  112.0
  21   160.0  157.7  154.3  150.4  144.6  133.1  113.2  112.4  112.3  112.2
  22   160.0  157.7  154.5  151.0  146.2  138.7  130.3  126.1  122.1  117.1
  23   160.0  157.9  154.9  151.9  148.3  143.6  138.9  135.1  129.8  121.4
  24   160.0  158.0  155.4  152.8  150.0  146.8  143.9  141.8  139.5  137.3
  25   160.0  158.2  155.9  153.7  151.5  149.1  147.2  145.9  144.6  143.3
  26   160.0  158.5  156.6  154.8  153.0  151.2  149.8  148.8  147.9  147.0
  27   160.0  158.9  157.3  155.8  154.2  152.7  151.5  150.8  150.0  149.2
1
              HEAD IN LAYER   5 AT END OF TIME STEP 200 IN STRESS PERIOD    1
  ---------------------------------------------------------------------------

         11     12     13     14     15     16     17
 ....................................................
   1   148.5  147.3  145.8  144.2  142.7  141.1  140.0
   2   146.3  145.6  144.4  143.1  141.8  140.5  140.0
   3   143.1  143.3  142.8  141.9  141.0  140.2  140.0
   4   139.8  141.1  141.4  141.1  140.5  139.9  140.0
   5   136.5  138.7  140.0  140.3  140.0  139.8  140.0
   6   130.4  135.2  138.4  139.5  139.7  139.7  140.0
   7   117.9  131.3  137.2  139.0  139.5  139.6  140.0
   8   117.5  130.0  136.6  138.8  139.4  139.6  140.0
   9   117.4  129.5  136.3  138.7  139.3  139.6  140.0
  10   117.4  129.6  136.4  138.6  139.3  139.5  140.0
  11   117.8  130.5  136.6  138.7  139.3  139.5  140.0
  12   127.9  133.4  137.3  138.9  139.3  139.5  140.0
  13   131.0  135.1  137.9  139.0  139.4  139.5  140.0
  14   129.3  134.7  137.8  138.9  139.3  139.5  140.0
  15   127.7  133.5  137.1  138.6  139.1  139.5  140.0
  16   123.5  130.8  135.9  137.9  138.8  139.3  140.0
  17   112.8  127.1  134.5  137.2  138.3  139.1  140.0
  18   112.4  125.7  133.7  136.6  137.9  138.9  140.0
  19   112.4  124.8  132.9  135.9  137.3  138.6  140.0
  20   112.4  124.3  132.0  134.8  136.3  138.1  140.0
  21   112.6  124.0  130.8  133.4  134.9  137.2  140.0
  22   119.7  124.1  128.0  129.9  131.5  134.9  140.0
  23   119.7  118.9  118.7  118.6  119.1  123.9  140.0
  24   135.7  134.1  132.9  132.2  132.5  135.2  140.0
  25   142.2  140.8  139.3  138.3  137.8  138.5  140.0
  26   146.1  144.9  143.4  142.0  140.9  140.1  140.0
  27   148.5  147.3  145.8  144.2  142.7  141.1  140.0
1
  VOLUMETRIC BUDGET FOR ENTIRE MODEL AT END OF TIME STEP200 IN STRESS PERIOD   1
  ------------------------------------------------------------------------------

     CUMULATIVE VOLUMES      L**3       RATES FOR THIS TIME STEP      L**3/T
     ------------------                 ------------------------

           IN:                                      IN:
           ---                                      ---
             STORAGE =     2934580.5000               STORAGE =       1.0358E-03
       CONSTANT HEAD =  1307436288.0000         CONSTANT HEAD =      540284.7500
                  ET =           0.0000                    ET =           0.0000
            RECHARGE =  4132498432.0000              RECHARGE =     2755000.0000
     SPECIFIED FLOWS =           0.0000       SPECIFIED FLOWS =           0.0000
      STREAM LEAKAGE =     3694574.2500        STREAM LEAKAGE =           0.0000
       LAKE  SEEPAGE =     2990331.7500         LAKE  SEEPAGE =           0.0000

            TOTAL IN =  5449554432.0000              TOTAL IN =     3295284.7500

          OUT:                                     OUT:
          ----                                     ----
             STORAGE =  1271903744.0000               STORAGE =         271.8887
       CONSTANT HEAD =     2961508.5000         CONSTANT HEAD =        2777.0815
                  ET =  2149150208.0000                    ET =     1739480.5000
            RECHARGE =           0.0000              RECHARGE =           0.0000
     SPECIFIED FLOWS =           0.0000       SPECIFIED FLOWS =           0.0000
      STREAM LEAKAGE =  1249287680.0000        STREAM LEAKAGE =      934245.2500
       LAKE  SEEPAGE =   776242560.0000         LAKE  SEEPAGE =      618511.3125

           TOTAL OUT =  5449545728.0000             TOTAL OUT =     3295286.0000

            IN - OUT =        8704.0000              IN - OUT =          -1.2500

 PERCENT DISCREPANCY =           0.00     PERCENT DISCREPANCY =           0.00






          TIME SUMMARY AT END OF TIME STEP 200 IN STRESS PERIOD    1
                    SECONDS     MINUTES      HOURS       DAYS        YEARS
                    -----------------------------------------------------------
   TIME STEP LENGTH 1.02150E+06  17025.      283.75      11.823     3.23695E-02
 STRESS PERIOD TIME 1.29600E+08 2.16000E+06  36000.      1500.0      4.1068    
         TOTAL TIME 1.29600E+08 2.16000E+06  36000.      1500.0      4.1068    
1
