                                  MODFLOW-2000
      U.S. GEOLOGICAL SURVEY MODULAR FINITE-DIFFERENCE GROUND-WATER FLOW MODEL
                           VERSION 1.19.01 03/25/2010


 This model run combines GLOBAL and LIST output into this single file.

 GLOBAL LISTING FILE: l3_2k.lst
                         UNIT    1

 OPENING l3_2k.gs1
 FILE TYPE:DATA   UNIT   26   STATUS:UNKNOWN
 FORMAT:FORMATTED              ACCESS:SEQUENTIAL          

 OPENING l3_2k.gs2
 FILE TYPE:DATA   UNIT   27   STATUS:UNKNOWN
 FORMAT:FORMATTED              ACCESS:SEQUENTIAL          

 OPENING l3_2k.gs3
 FILE TYPE:DATA   UNIT   28   STATUS:UNKNOWN
 FORMAT:FORMATTED              ACCESS:SEQUENTIAL          

 OPENING l3_2k.gs4
 FILE TYPE:DATA   UNIT   29   STATUS:UNKNOWN
 FORMAT:FORMATTED              ACCESS:SEQUENTIAL          
#                                                                                                                                                                                                       
# Input files                                                                                                                                                                                           

 OPENING ../data/l3_2k.ba6
 FILE TYPE:BAS6   UNIT    7   STATUS:OLD    
 FORMAT:FORMATTED              ACCESS:SEQUENTIAL          

 OPENING ../data/l3_2k.bc6
 FILE TYPE:BCF6   UNIT   10   STATUS:OLD    
 FORMAT:FORMATTED              ACCESS:SEQUENTIAL          

 OPENING ../data/l3_2k.evt
 FILE TYPE:EVT   UNIT   11   STATUS:OLD    
 FORMAT:FORMATTED              ACCESS:SEQUENTIAL          

 OPENING ../data/l3_2k.rch
 FILE TYPE:RCH   UNIT   12   STATUS:OLD    
 FORMAT:FORMATTED              ACCESS:SEQUENTIAL          

 OPENING ../data/l3_2k.sip
 FILE TYPE:SIP   UNIT   13   STATUS:OLD    
 FORMAT:FORMATTED              ACCESS:SEQUENTIAL          
#pcg  13 ../data/l3_2k.pcg                                                                                                                                                                              

 OPENING ../data/l3_2k.oc
 FILE TYPE:OC   UNIT   17   STATUS:OLD    
 FORMAT:FORMATTED              ACCESS:SEQUENTIAL          

 OPENING ../data/l3_2k.fhb
 FILE TYPE:FHB   UNIT   21   STATUS:OLD    
 FORMAT:FORMATTED              ACCESS:SEQUENTIAL          

 OPENING ../data/l3_2k.lak
 FILE TYPE:LAK   UNIT   16   STATUS:OLD    
 FORMAT:FORMATTED              ACCESS:SEQUENTIAL          

 OPENING ../data/l3_2k.dis
 FILE TYPE:DIS   UNIT   22   STATUS:OLD    
 FORMAT:FORMATTED              ACCESS:SEQUENTIAL          

 OPENING ../data/l3_2k.gge
 FILE TYPE:GAGE   UNIT   24   STATUS:OLD    
 FORMAT:FORMATTED              ACCESS:SEQUENTIAL          


 DISCRETIZATION INPUT DATA READ FROM UNIT   22
    5 LAYERS        17 ROWS        22 COLUMNS
    2 STRESS PERIOD(S) IN SIMULATION
 MODEL TIME UNIT IS DAYS
 MODEL LENGTH UNIT IS UNDEFINED
 THE GROUND-WATER TRANSPORT PROCESS IS INACTIVE

 THE OBSERVATION PROCESS IS INACTIVE
 THE SENSITIVITY PROCESS IS INACTIVE
 THE PARAMETER-ESTIMATION PROCESS IS INACTIVE

 MODE: FORWARD

  Confining bed flag for each layer:
   0   0   0   0   0

      16869  ELEMENTS OF GX ARRAY USED OUT OF      16869
       1870  ELEMENTS OF GZ ARRAY USED OUT OF       1870
       1870  ELEMENTS OF IG ARRAY USED OUT OF       1870



                               DELR
 READING ON UNIT   22 WITH FORMAT: (7F10.0)            
   250.00       1000.0       1000.0       1000.0       500.00       500.00       500.00       500.00       500.00       500.00    
   500.00       500.00       500.00       500.00       500.00       500.00       500.00       500.00       500.00       1000.0    
   1000.0       250.00    



                               DELC
 READING ON UNIT   22 WITH FORMAT: (7F10.0)            
   250.00       1000.0       1000.0       1000.0       1000.0       1000.0       500.00       500.00       500.00       500.00    
   500.00       1000.0       1000.0       1000.0       1000.0       1000.0       250.00    

 TOP ELEVATION OF LAYER 1 =   300.000    

   MODEL LAYER BOTTOM EL. =   107.000     FOR LAYER   1

   MODEL LAYER BOTTOM EL. =   97.0000     FOR LAYER   2

   MODEL LAYER BOTTOM EL. =   87.0000     FOR LAYER   3

   MODEL LAYER BOTTOM EL. =   77.0000     FOR LAYER   4

   MODEL LAYER BOTTOM EL. =   67.0000     FOR LAYER   5


 STRESS PERIOD     LENGTH       TIME STEPS     MULTIPLIER FOR DELT    SS FLAG
 ----------------------------------------------------------------------------
        1         400.0000         50                    1.030         TR
        2         400.0000         50                    1.030         TR

 TRANSIENT SIMULATION




 SIP5 -- STRONGLY IMPLICIT PROCEDURE SOLUTION PACKAGE
                    VERSION 5, 9/1/93 INPUT READ FROM UNIT   13
 MAXIMUM OF 300 ITERATIONS ALLOWED FOR CLOSURE
  5 ITERATION PARAMETERS
       7785 ELEMENTS IN X ARRAY ARE USED BY SIP
        900 ELEMENTS IN IX ARRAY ARE USED BY SIP

       7785  ELEMENTS OF X ARRAY USED OUT OF       7785
          0  ELEMENTS OF Z ARRAY USED OUT OF          1
        900  ELEMENTS OF IX ARRAY USED OUT OF        900
          0  ELEMENTS OF XHS ARRAY USED OUT OF          1



          SOLUTION BY THE STRONGLY IMPLICIT PROCEDURE
          -------------------------------------------
 MAXIMUM ITERATIONS ALLOWED FOR CLOSURE =      300
                 ACCELERATION PARAMETER =     1.0000    
      HEAD CHANGE CRITERION FOR CLOSURE =    0.10000E-03
      SIP HEAD CHANGE PRINTOUT INTERVAL =      999

     CALCULATE ITERATION PARAMETERS FROM MODEL CALCULATED WSEED
 
 # Separation and Coalescence in a multiple-lake system                          
    5 LAYERS        17 ROWS        22 COLUMNS
    2 STRESS PERIOD(S) IN SIMULATION

 BAS6 -- BASIC PACKAGE, VERSION 6, 1/11/2000 INPUT READ FROM UNIT    7
         25 ELEMENTS IN IR ARRAY ARE USED BY BAS

 BCF6 -- BLOCK-CENTERED FLOW PACKAGE, VERSION 6, 1/11/2000
         INPUT READ FROM UNIT 10
 TRANSIENT SIMULATION
 HEAD AT CELLS THAT CONVERT TO DRY=   0.0000    
 WETTING CAPABILITY IS ACTIVE
 WETTING FACTOR=   1.00000     WETTING ITERATION INTERVAL=   1
 FLAG THAT SPECIFIES THE EQUATION TO USE FOR HEAD AT WETTED CELLS=   0
      LAYER  LAYER-TYPE CODE     INTERBLOCK T
      --------------------------------------------
         1            1          0 -- HARMONIC    
         2            3          0 -- HARMONIC    
         3            3          0 -- HARMONIC    
         4            3          0 -- HARMONIC    
         5            3          0 -- HARMONIC    
       8607 ELEMENTS IN RX ARRAY ARE USED BY BCF

 EVT6 -- EVAPOTRANSPIRATION PACKAGE, VERSION 6, 12/14/2000
         INPUT READ FROM UNIT   11
 No named parameters
 OPTION 3 -- EVAPOTRANSPIRATION FROM HIGHEST ACTIVE NODE IN EACH VERTICAL COLUMN
       1122 ELEMENTS IN RX ARRAY ARE USED BY EVT
        374 ELEMENTS IN IR ARRAY ARE USED BY EVT

 RCH6 -- RECHARGE PACKAGE, VERSION 6, 1/11/2000 INPUT READ FROM UNIT   12
 No named parameters
 OPTION 3 -- RECHARGE TO HIGHEST ACTIVE NODE IN EACH VERTICAL COLUMN
        374 ELEMENTS IN RX ARRAY ARE USED BY RCH
        374 ELEMENTS IN IR ARRAY ARE USED BY RCH
0FHB1 -- SPECIFIED FLOW PACKAGE, VERSION 1,12/3/96 INPUT READ FROM 21
  SPECIFIED FLOW AND HEAD VALUES WILL REMAIN CONSTANT FOR ENTIRE SIMULATION.
 FLOW WILL BE SPECIFIED AT A TOTAL OF    0 CELLS.
 HEAD WILL BE SPECIFIED AT A TOTAL OF  370 CELLS.
 FHB STEADY-STATE OPTION FLAG WILL BE IGNORED,
 AT LEAST ONE STRESS PERIOD IS TRANSIENT.
  0 AUXILIARY VARIABLES FOR SPECIFIED-FLOW CELLS WILL
  BE DEFINED BY FHB FOR USE BY OTHER PACKAGES.
  0 AUXILIARY VARIABLES FOR SPECIFIED-HEAD CELLS WILL
  BE DEFINED BY FHB FOR USE BY OTHER PACKAGES.
      371 ELEMENTS IN RX ARRAY ARE USED FOR FHB1
     1480 ELEMENTS IN IR ARRAY ARE USED FOR FHB1

 LAK3 -- LAKE PACKAGE, VERSION 3.2, 1/29/2010 INPUT READ FROM UNIT 16
 SPACE ALLOCATION FOR    935 GRID CELL FACES ADJACENT TO LAKES
 MAXIMUM NUMBER OF LAKES IS  4 FOR THIS SIMULATION
 CELL-BY-CELL SEEPAGES WILL NOT BE PRINTED OR SAVED

 THETA =  1.000
 THETA IS THE TIME WEIGHTING FACTOR FOR COMPUTING LAKE STAGE DURING TRANSIENT MODFLOW TIME STEPS AND ITS DEFINITION HAS BEEN MODIFIED.
 THETA CAN BE 0, OR BETWEEN 0.5 AND 1.0. VALUES LESS THAN 0.5 ARE RESET TO 0.0 AND VALUES GREATER THAN 1.0 ARE RESET TO 1.0. 
 A THETA OF 0.0 REPRESENTS THE LAKE STAGE FROM THE END OF THE PREVIOUS TIME STEP.
 A THETA OF 0.5 REPRESENTS THE AVERAGE LAKE STAGE DURING A TIME STEP.
 A THETA OF 1.0 REPRESENTS THE LAKE STAGE AT THE END OF THE TIME STEP.




 LAKE PACKAGE HAS BEEN MODIFIED TO ITERATIVELY SOLVE FOR LAKE STAGE DURING TRANSIENT STRESS PERIODS:
 MAXIMUM NUMBER OF ITERATIONS (NSSITR) =   100
 CLOSURE CRITERIA FOR LAKE STAGE (SSCNCR) = 1.000000E-07
 MAGNITUDE OF SURFACE UNDULATIONS OF LAKE BED (SURFDEPTH) = 1.000000E-01
 DEFAULT VALUES FOR TRANSIENT ONLY SIMULATIONS ARE: NSSITR = 100, SSCNCR = 0.0001, AND SURFDEPTH = 1.0
 VALUES OTHER THAN DEFAULT CAN BE READ BY SPECIFYING A THETA LESS THAN ZERO THEN ADDING NSSITR AND SSCNCR PER ORIGINAL INSTRUCTIONS AND SURFDEPTH TO APPROXIMATE UNDULATIONS IN THE LAKEBED
 NEGATIVE THETA MUST BE LESS THAN ZERO BUT NOT MORE THAN ONE. THETA IS CONVERTED TO A POSITIVE VALUE.
 MINIMUM AND MAXIMUM LAKE STAGES FOR TRANSIENT SIMULATIONS ARE SET TO BOTTOM AND TOP ELEVATIONS USED TO COMPUTE LAKE VOLUME, RESPECTIVELY.


       5789 ELEMENTS IN RX ARRAY ARE USED BY LAK
        644 ELEMENTS IN RZ ARRAY ARE USED BY LAK
       8499 ELEMENTS IN IR ARRAY ARE USED BY LAK
          0 ELEMENTS IN RX ARRAY ARE USED BY GAGE
         23 ELEMENTS IN IR ARRAY ARE USED BY GAGE

      16263  ELEMENTS OF RX ARRAY USED OUT OF      16263
        648  ELEMENTS OF RZ ARRAY USED OUT OF        648
      10775  ELEMENTS OF IR ARRAY USED OUT OF      10775
1
 # Separation and Coalescence in a multiple-lake system                          
                                                                                 



                     BOUNDARY ARRAY FOR LAYER   1
 READING ON UNIT    7 WITH FORMAT: (24I3)              

        1   2   3   4   5   6   7   8   9  10  11  12  13  14  15  16  17  18  19  20  21  22
 ............................................................................................
   1   -1  -1  -1  -1  -1  -1  -1  -1  -1  -1  -1  -1  -1  -1  -1  -1  -1  -1  -1  -1  -1  -1
   2   -1   1   1   1   1   1   1   1   1   1   1   1   1   1   1   1   1   1   1   1   1  -1
   3   -1   1   1   1   1   1   1   1   1   1   1   1   1   1   1   1   1   1   1   1   1  -1
   4   -1   1   1   1   1   1   1   1   1   1   1   1   1   1   1   1   1   1   1   1   1  -1
   5   -1   1   1   1   1   1   1   1   1   1   1   1   1   1   1   1   1   1   1   1   1  -1
   6   -1   1   1   1   1   1   1   1   1   1   1   1   1   1   1   1   1   1   1   1   1  -1
   7   -1   1   1   1   0   0   0   1   0   0   0   0   0   1   1   1   1   1   1   1   1  -1
   8   -1   1   1   1   0   0   0   1   0   0   0   0   0   1   0   0   1   0   0   1   1  -1
   9   -1   1   1   1   0   0   0   0   0   0   0   0   0   0   0   0   0   0   0   1   1  -1
  10   -1   1   1   1   0   0   0   1   0   0   0   0   0   1   0   0   1   0   0   1   1  -1
  11   -1   1   1   1   0   0   0   1   0   0   0   0   0   1   1   1   1   1   1   1   1  -1
  12   -1   1   1   1   1   1   1   1   1   1   1   1   1   1   1   1   1   1   1   1   1  -1
  13   -1   1   1   1   1   1   1   1   1   1   1   1   1   1   1   1   1   1   1   1   1  -1
  14   -1   1   1   1   1   1   1   1   1   1   1   1   1   1   1   1   1   1   1   1   1  -1
  15   -1   1   1   1   1   1   1   1   1   1   1   1   1   1   1   1   1   1   1   1   1  -1
  16   -1   1   1   1   1   1   1   1   1   1   1   1   1   1   1   1   1   1   1   1   1  -1
  17   -1  -1  -1  -1  -1  -1  -1  -1  -1  -1  -1  -1  -1  -1  -1  -1  -1  -1  -1  -1  -1  -1



                     BOUNDARY ARRAY FOR LAYER   2
 READING ON UNIT    7 WITH FORMAT: (24I3)              

        1   2   3   4   5   6   7   8   9  10  11  12  13  14  15  16  17  18  19  20  21  22
 ............................................................................................
   1   -1  -1  -1  -1  -1  -1  -1  -1  -1  -1  -1  -1  -1  -1  -1  -1  -1  -1  -1  -1  -1  -1
   2   -1   1   1   1   1   1   1   1   1   1   1   1   1   1   1   1   1   1   1   1   1  -1
   3   -1   1   1   1   1   1   1   1   1   1   1   1   1   1   1   1   1   1   1   1   1  -1
   4   -1   1   1   1   1   1   1   1   1   1   1   1   1   1   1   1   1   1   1   1   1  -1
   5   -1   1   1   1   1   1   1   1   1   1   1   1   1   1   1   1   1   1   1   1   1  -1
   6   -1   1   1   1   1   1   1   1   1   1   1   1   1   1   1   1   1   1   1   1   1  -1
   7   -1   1   1   1   1   1   1   1   1   1   1   1   1   1   1   1   1   1   1   1   1  -1
   8   -1   1   1   1   1   0   1   1   1   0   0   0   1   1   0   0   1   0   0   1   1  -1
   9   -1   1   1   1   1   0   0   1   0   0   0   0   0   1   0   0   1   0   0   1   1  -1
  10   -1   1   1   1   1   0   1   1   1   0   0   0   1   1   1   1   1   1   1   1   1  -1
  11   -1   1   1   1   1   1   1   1   1   1   1   1   1   1   1   1   1   1   1   1   1  -1
  12   -1   1   1   1   1   1   1   1   1   1   1   1   1   1   1   1   1   1   1   1   1  -1
  13   -1   1   1   1   1   1   1   1   1   1   1   1   1   1   1   1   1   1   1   1   1  -1
  14   -1   1   1   1   1   1   1   1   1   1   1   1   1   1   1   1   1   1   1   1   1  -1
  15   -1   1   1   1   1   1   1   1   1   1   1   1   1   1   1   1   1   1   1   1   1  -1
  16   -1   1   1   1   1   1   1   1   1   1   1   1   1   1   1   1   1   1   1   1   1  -1
  17   -1  -1  -1  -1  -1  -1  -1  -1  -1  -1  -1  -1  -1  -1  -1  -1  -1  -1  -1  -1  -1  -1



                     BOUNDARY ARRAY FOR LAYER   3
 READING ON UNIT    7 WITH FORMAT: (24I3)              

        1   2   3   4   5   6   7   8   9  10  11  12  13  14  15  16  17  18  19  20  21  22
 ............................................................................................
   1   -1  -1  -1  -1  -1  -1  -1  -1  -1  -1  -1  -1  -1  -1  -1  -1  -1  -1  -1  -1  -1  -1
   2   -1   1   1   1   1   1   1   1   1   1   1   1   1   1   1   1   1   1   1   1   1  -1
   3   -1   1   1   1   1   1   1   1   1   1   1   1   1   1   1   1   1   1   1   1   1  -1
   4   -1   1   1   1   1   1   1   1   1   1   1   1   1   1   1   1   1   1   1   1   1  -1
   5   -1   1   1   1   1   1   1   1   1   1   1   1   1   1   1   1   1   1   1   1   1  -1
   6   -1   1   1   1   1   1   1   1   1   1   1   1   1   1   1   1   1   1   1   1   1  -1
   7   -1   1   1   1   1   1   1   1   1   1   1   1   1   1   1   1   1   1   1   1   1  -1
   8   -1   1   1   1   1   1   1   1   1   1   1   1   1   1   1   1   1   1   1   1   1  -1
   9   -1   1   1   1   1   1   1   1   1   1   1   1   1   1   1   1   1   1   1   1   1  -1
  10   -1   1   1   1   1   1   1   1   1   1   1   1   1   1   1   1   1   1   1   1   1  -1
  11   -1   1   1   1   1   1   1   1   1   1   1   1   1   1   1   1   1   1   1   1   1  -1
  12   -1   1   1   1   1   1   1   1   1   1   1   1   1   1   1   1   1   1   1   1   1  -1
  13   -1   1   1   1   1   1   1   1   1   1   1   1   1   1   1   1   1   1   1   1   1  -1
  14   -1   1   1   1   1   1   1   1   1   1   1   1   1   1   1   1   1   1   1   1   1  -1
  15   -1   1   1   1   1   1   1   1   1   1   1   1   1   1   1   1   1   1   1   1   1  -1
  16   -1   1   1   1   1   1   1   1   1   1   1   1   1   1   1   1   1   1   1   1   1  -1
  17   -1  -1  -1  -1  -1  -1  -1  -1  -1  -1  -1  -1  -1  -1  -1  -1  -1  -1  -1  -1  -1  -1



                     BOUNDARY ARRAY FOR LAYER   4
 READING ON UNIT    7 WITH FORMAT: (24I3)              

        1   2   3   4   5   6   7   8   9  10  11  12  13  14  15  16  17  18  19  20  21  22
 ............................................................................................
   1   -1  -1  -1  -1  -1  -1  -1  -1  -1  -1  -1  -1  -1  -1  -1  -1  -1  -1  -1  -1  -1  -1
   2   -1   1   1   1   1   1   1   1   1   1   1   1   1   1   1   1   1   1   1   1   1  -1
   3   -1   1   1   1   1   1   1   1   1   1   1   1   1   1   1   1   1   1   1   1   1  -1
   4   -1   1   1   1   1   1   1   1   1   1   1   1   1   1   1   1   1   1   1   1   1  -1
   5   -1   1   1   1   1   1   1   1   1   1   1   1   1   1   1   1   1   1   1   1   1  -1
   6   -1   1   1   1   1   1   1   1   1   1   1   1   1   1   1   1   1   1   1   1   1  -1
   7   -1   1   1   1   1   1   1   1   1   1   1   1   1   1   1   1   1   1   1   1   1  -1
   8   -1   1   1   1   1   1   1   1   1   1   1   1   1   1   1   1   1   1   1   1   1  -1
   9   -1   1   1   1   1   1   1   1   1   1   1   1   1   1   1   1   1   1   1   1   1  -1
  10   -1   1   1   1   1   1   1   1   1   1   1   1   1   1   1   1   1   1   1   1   1  -1
  11   -1   1   1   1   1   1   1   1   1   1   1   1   1   1   1   1   1   1   1   1   1  -1
  12   -1   1   1   1   1   1   1   1   1   1   1   1   1   1   1   1   1   1   1   1   1  -1
  13   -1   1   1   1   1   1   1   1   1   1   1   1   1   1   1   1   1   1   1   1   1  -1
  14   -1   1   1   1   1   1   1   1   1   1   1   1   1   1   1   1   1   1   1   1   1  -1
  15   -1   1   1   1   1   1   1   1   1   1   1   1   1   1   1   1   1   1   1   1   1  -1
  16   -1   1   1   1   1   1   1   1   1   1   1   1   1   1   1   1   1   1   1   1   1  -1
  17   -1  -1  -1  -1  -1  -1  -1  -1  -1  -1  -1  -1  -1  -1  -1  -1  -1  -1  -1  -1  -1  -1



                     BOUNDARY ARRAY FOR LAYER   5
 READING ON UNIT    7 WITH FORMAT: (24I3)              

        1   2   3   4   5   6   7   8   9  10  11  12  13  14  15  16  17  18  19  20  21  22
 ............................................................................................
   1   -1  -1  -1  -1  -1  -1  -1  -1  -1  -1  -1  -1  -1  -1  -1  -1  -1  -1  -1  -1  -1  -1
   2   -1   1   1   1   1   1   1   1   1   1   1   1   1   1   1   1   1   1   1   1   1  -1
   3   -1   1   1   1   1   1   1   1   1   1   1   1   1   1   1   1   1   1   1   1   1  -1
   4   -1   1   1   1   1   1   1   1   1   1   1   1   1   1   1   1   1   1   1   1   1  -1
   5   -1   1   1   1   1   1   1   1   1   1   1   1   1   1   1   1   1   1   1   1   1  -1
   6   -1   1   1   1   1   1   1   1   1   1   1   1   1   1   1   1   1   1   1   1   1  -1
   7   -1   1   1   1   1   1   1   1   1   1   1   1   1   1   1   1   1   1   1   1   1  -1
   8   -1   1   1   1   1   1   1   1   1   1   1   1   1   1   1   1   1   1   1   1   1  -1
   9   -1   1   1   1   1   1   1   1   1   1   1   1   1   1   1   1   1   1   1   1   1  -1
  10   -1   1   1   1   1   1   1   1   1   1   1   1   1   1   1   1   1   1   1   1   1  -1
  11   -1   1   1   1   1   1   1   1   1   1   1   1   1   1   1   1   1   1   1   1   1  -1
  12   -1   1   1   1   1   1   1   1   1   1   1   1   1   1   1   1   1   1   1   1   1  -1
  13   -1   1   1   1   1   1   1   1   1   1   1   1   1   1   1   1   1   1   1   1   1  -1
  14   -1   1   1   1   1   1   1   1   1   1   1   1   1   1   1   1   1   1   1   1   1  -1
  15   -1   1   1   1   1   1   1   1   1   1   1   1   1   1   1   1   1   1   1   1   1  -1
  16   -1   1   1   1   1   1   1   1   1   1   1   1   1   1   1   1   1   1   1   1   1  -1
  17   -1  -1  -1  -1  -1  -1  -1  -1  -1  -1  -1  -1  -1  -1  -1  -1  -1  -1  -1  -1  -1  -1

 AQUIFER HEAD WILL BE SET TO -999.00     AT ALL NO-FLOW NODES (IBOUND=0).

             INITIAL HEAD =   115.000     FOR LAYER   1

             INITIAL HEAD =   115.000     FOR LAYER   2

             INITIAL HEAD =   115.000     FOR LAYER   3

             INITIAL HEAD =   115.000     FOR LAYER   4

             INITIAL HEAD =   115.000     FOR LAYER   5

 OUTPUT CONTROL IS SPECIFIED EVERY TIME STEP
 HEAD PRINT FORMAT CODE IS -14    DRAWDOWN PRINT FORMAT CODE IS   9
 HEADS WILL BE SAVED ON UNIT   18    DRAWDOWNS WILL BE SAVED ON UNIT   19

 COLUMN TO ROW ANISOTROPY =   1.00000    

     PRIMARY STORAGE COEF =  0.200000     FOR LAYER   1

    HYD. COND. ALONG ROWS =   30.0000     FOR LAYER   1

 VERT HYD COND /THICKNESS =   3.00000     FOR LAYER   1



                   WETDRY PARAMETER FOR LAYER   1
 READING ON UNIT   10 WITH FORMAT: (24F3.0)            

         1     2     3     4     5     6     7     8     9    10    11    12    13    14    15    16    17    18    19    20
        21    22
 ...........................................................................................................................
   1    0.2   0.2   0.2   0.2   0.2   0.2   0.2   0.2   0.2   0.2   0.2   0.2   0.2   0.2   0.2   0.2   0.2   0.2   0.2   0.2
        0.2   0.2
   2    0.2  -0.2  -0.2  -0.2  -0.2  -0.2  -0.2  -0.2  -0.2  -0.2  -0.2  -0.2  -0.2  -0.2  -0.2  -0.2  -0.2  -0.2  -0.2  -0.2
       -0.2   0.2
   3    0.2  -0.2  -0.2  -0.2  -0.2  -0.2  -0.2  -0.2  -0.2  -0.2  -0.2  -0.2  -0.2  -0.2  -0.2  -0.2  -0.2  -0.2  -0.2  -0.2
       -0.2   0.2
   4    0.2  -0.2  -0.2  -0.2  -0.2  -0.2  -0.2  -0.2  -0.2  -0.2  -0.2  -0.2  -0.2  -0.2  -0.2  -0.2  -0.2  -0.2  -0.2  -0.2
       -0.2   0.2
   5    0.2  -0.2  -0.2  -0.2  -0.2  -0.2  -0.2  -0.2  -0.2  -0.2  -0.2  -0.2  -0.2  -0.2  -0.2  -0.2  -0.2  -0.2  -0.2  -0.2
       -0.2   0.2
   6    0.2  -0.2  -0.2  -0.2  -0.2  -0.2  -0.2  -0.2  -0.2  -0.2  -0.2  -0.2  -0.2  -0.2  -0.2  -0.2  -0.2  -0.2  -0.2  -0.2
       -0.2   0.2
   7    0.2  -0.2  -0.2  -0.2   0.0   0.0   0.0  -0.2   0.0   0.0   0.0   0.0   0.0  -0.2  -0.2  -0.2  -0.2  -0.2  -0.2  -0.2
       -0.2   0.2
   8    0.2  -0.2  -0.2  -0.2   0.0   0.0   0.0  -0.2   0.0   0.0   0.0   0.0   0.0  -0.2   0.0   0.0  -0.2   0.0   0.0  -0.2
       -0.2   0.2
   9    0.2  -0.2  -0.2  -0.2   0.0   0.0   0.0   0.0   0.0   0.0   0.0   0.0   0.0   0.0   0.0   0.0   0.0   0.0   0.0  -0.2
       -0.2   0.2
  10    0.2  -0.2  -0.2  -0.2   0.0   0.0   0.0  -0.2   0.0   0.0   0.0   0.0   0.0  -0.2   0.0   0.0  -0.2   0.0   0.0  -0.2
       -0.2   0.2
  11    0.2  -0.2  -0.2  -0.2   0.0   0.0   0.0  -0.2   0.0   0.0   0.0   0.0   0.0  -0.2  -0.2  -0.2  -0.2  -0.2  -0.2  -0.2
       -0.2   0.2
  12    0.2  -0.2  -0.2  -0.2  -0.2  -0.2  -0.2  -0.2  -0.2  -0.2  -0.2  -0.2  -0.2  -0.2  -0.2  -0.2  -0.2  -0.2  -0.2  -0.2
       -0.2   0.2
  13    0.2  -0.2  -0.2  -0.2  -0.2  -0.2  -0.2  -0.2  -0.2  -0.2  -0.2  -0.2  -0.2  -0.2  -0.2  -0.2  -0.2  -0.2  -0.2  -0.2
       -0.2   0.2
  14    0.2  -0.2  -0.2  -0.2  -0.2  -0.2  -0.2  -0.2  -0.2  -0.2  -0.2  -0.2  -0.2  -0.2  -0.2  -0.2  -0.2  -0.2  -0.2  -0.2
       -0.2   0.2
  15    0.2  -0.2  -0.2  -0.2  -0.2  -0.2  -0.2  -0.2  -0.2  -0.2  -0.2  -0.2  -0.2  -0.2  -0.2  -0.2  -0.2  -0.2  -0.2  -0.2
       -0.2   0.2
  16    0.2  -0.2  -0.2  -0.2  -0.2  -0.2  -0.2  -0.2  -0.2  -0.2  -0.2  -0.2  -0.2  -0.2  -0.2  -0.2  -0.2  -0.2  -0.2  -0.2
       -0.2   0.2
  17    0.2   0.2   0.2   0.2   0.2   0.2   0.2   0.2   0.2   0.2   0.2   0.2   0.2   0.2   0.2   0.2   0.2   0.2   0.2   0.2
        0.2   0.2

     PRIMARY STORAGE COEF =  3.000000E-04 FOR LAYER   2

    HYD. COND. ALONG ROWS =   30.0000     FOR LAYER   2

 VERT HYD COND /THICKNESS =   3.00000     FOR LAYER   2

   SECONDARY STORAGE COEF =  0.200000     FOR LAYER   2



                   WETDRY PARAMETER FOR LAYER   2
 READING ON UNIT   10 WITH FORMAT: (24F3.0)            

         1     2     3     4     5     6     7     8     9    10    11    12    13    14    15    16    17    18    19    20
        21    22
 ...........................................................................................................................
   1    0.2   0.2   0.2   0.2   0.2   0.2   0.2   0.2   0.2   0.2   0.2   0.2   0.2   0.2   0.2   0.2   0.2   0.2   0.2   0.2
        0.2   0.2
   2    0.2  -0.2  -0.2  -0.2  -0.2  -0.2  -0.2  -0.2  -0.2  -0.2  -0.2  -0.2  -0.2  -0.2  -0.2  -0.2  -0.2  -0.2  -0.2  -0.2
       -0.2   0.2
   3    0.2  -0.2  -0.2  -0.2  -0.2  -0.2  -0.2  -0.2  -0.2  -0.2  -0.2  -0.2  -0.2  -0.2  -0.2  -0.2  -0.2  -0.2  -0.2  -0.2
       -0.2   0.2
   4    0.2  -0.2  -0.2  -0.2  -0.2  -0.2  -0.2  -0.2  -0.2  -0.2  -0.2  -0.2  -0.2  -0.2  -0.2  -0.2  -0.2  -0.2  -0.2  -0.2
       -0.2   0.2
   5    0.2  -0.2  -0.2  -0.2  -0.2  -0.2  -0.2  -0.2  -0.2  -0.2  -0.2  -0.2  -0.2  -0.2  -0.2  -0.2  -0.2  -0.2  -0.2  -0.2
       -0.2   0.2
   6    0.2  -0.2  -0.2  -0.2  -0.2  -0.2  -0.2  -0.2  -0.2  -0.2  -0.2  -0.2  -0.2  -0.2  -0.2  -0.2  -0.2  -0.2  -0.2  -0.2
       -0.2   0.2
   7    0.2  -0.2  -0.2  -0.2  -0.2  -0.2  -0.2  -0.2  -0.2  -0.2  -0.2  -0.2  -0.2  -0.2  -0.2  -0.2  -0.2  -0.2  -0.2  -0.2
       -0.2   0.2
   8    0.2  -0.2  -0.2  -0.2  -0.2   0.0  -0.2  -0.2  -0.2   0.0   0.0   0.0  -0.2  -0.2   0.0   0.0  -0.2   0.0   0.0  -0.2
       -0.2   0.2
   9    0.2  -0.2  -0.2  -0.2  -0.2   0.0   0.0  -0.2   0.0   0.0   0.0   0.0   0.0  -0.2   0.0   0.0  -0.2   0.0   0.0  -0.2
       -0.2   0.2
  10    0.2  -0.2  -0.2  -0.2  -0.2   0.0  -0.2  -0.2  -0.2   0.0   0.0   0.0  -0.2  -0.2  -0.2  -0.2  -0.2  -0.2  -0.2  -0.2
       -0.2   0.2
  11    0.2  -0.2  -0.2  -0.2  -0.2  -0.2  -0.2  -0.2  -0.2  -0.2  -0.2  -0.2  -0.2  -0.2  -0.2  -0.2  -0.2  -0.2  -0.2  -0.2
       -0.2   0.2
  12    0.2  -0.2  -0.2  -0.2  -0.2  -0.2  -0.2  -0.2  -0.2  -0.2  -0.2  -0.2  -0.2  -0.2  -0.2  -0.2  -0.2  -0.2  -0.2  -0.2
       -0.2   0.2
  13    0.2  -0.2  -0.2  -0.2  -0.2  -0.2  -0.2  -0.2  -0.2  -0.2  -0.2  -0.2  -0.2  -0.2  -0.2  -0.2  -0.2  -0.2  -0.2  -0.2
       -0.2   0.2
  14    0.2  -0.2  -0.2  -0.2  -0.2  -0.2  -0.2  -0.2  -0.2  -0.2  -0.2  -0.2  -0.2  -0.2  -0.2  -0.2  -0.2  -0.2  -0.2  -0.2
       -0.2   0.2
  15    0.2  -0.2  -0.2  -0.2  -0.2  -0.2  -0.2  -0.2  -0.2  -0.2  -0.2  -0.2  -0.2  -0.2  -0.2  -0.2  -0.2  -0.2  -0.2  -0.2
       -0.2   0.2
  16    0.2  -0.2  -0.2  -0.2  -0.2  -0.2  -0.2  -0.2  -0.2  -0.2  -0.2  -0.2  -0.2  -0.2  -0.2  -0.2  -0.2  -0.2  -0.2  -0.2
       -0.2   0.2
  17    0.2   0.2   0.2   0.2   0.2   0.2   0.2   0.2   0.2   0.2   0.2   0.2   0.2   0.2   0.2   0.2   0.2   0.2   0.2   0.2
        0.2   0.2

     PRIMARY STORAGE COEF =  3.000000E-04 FOR LAYER   3

    HYD. COND. ALONG ROWS =   30.0000     FOR LAYER   3

 VERT HYD COND /THICKNESS =   3.00000     FOR LAYER   3

   SECONDARY STORAGE COEF =  0.200000     FOR LAYER   3



                   WETDRY PARAMETER FOR LAYER   3
 READING ON UNIT   10 WITH FORMAT: (24F3.0)            

         1     2     3     4     5     6     7     8     9    10    11    12    13    14    15    16    17    18    19    20
        21    22
 ...........................................................................................................................
   1    0.2   0.2   0.2   0.2   0.2   0.2   0.2   0.2   0.2   0.2   0.2   0.2   0.2   0.2   0.2   0.2   0.2   0.2   0.2   0.2
        0.2   0.2
   2    0.2  -0.2  -0.2  -0.2  -0.2  -0.2  -0.2  -0.2  -0.2  -0.2  -0.2  -0.2  -0.2  -0.2  -0.2  -0.2  -0.2  -0.2  -0.2  -0.2
       -0.2   0.2
   3    0.2  -0.2  -0.2  -0.2  -0.2  -0.2  -0.2  -0.2  -0.2  -0.2  -0.2  -0.2  -0.2  -0.2  -0.2  -0.2  -0.2  -0.2  -0.2  -0.2
       -0.2   0.2
   4    0.2  -0.2  -0.2  -0.2  -0.2  -0.2  -0.2  -0.2  -0.2  -0.2  -0.2  -0.2  -0.2  -0.2  -0.2  -0.2  -0.2  -0.2  -0.2  -0.2
       -0.2   0.2
   5    0.2  -0.2  -0.2  -0.2  -0.2  -0.2  -0.2  -0.2  -0.2  -0.2  -0.2  -0.2  -0.2  -0.2  -0.2  -0.2  -0.2  -0.2  -0.2  -0.2
       -0.2   0.2
   6    0.2  -0.2  -0.2  -0.2  -0.2  -0.2  -0.2  -0.2  -0.2  -0.2  -0.2  -0.2  -0.2  -0.2  -0.2  -0.2  -0.2  -0.2  -0.2  -0.2
       -0.2   0.2
   7    0.2  -0.2  -0.2  -0.2  -0.2  -0.2  -0.2  -0.2  -0.2  -0.2  -0.2  -0.2  -0.2  -0.2  -0.2  -0.2  -0.2  -0.2  -0.2  -0.2
       -0.2   0.2
   8    0.2  -0.2  -0.2  -0.2  -0.2  -0.2  -0.2  -0.2  -0.2  -0.2  -0.2  -0.2  -0.2  -0.2  -0.2  -0.2  -0.2  -0.2  -0.2  -0.2
       -0.2   0.2
   9    0.2  -0.2  -0.2  -0.2  -0.2  -0.2  -0.2  -0.2  -0.2  -0.2  -0.2  -0.2  -0.2  -0.2  -0.2  -0.2  -0.2  -0.2  -0.2  -0.2
       -0.2   0.2
  10    0.2  -0.2  -0.2  -0.2  -0.2  -0.2  -0.2  -0.2  -0.2  -0.2  -0.2  -0.2  -0.2  -0.2  -0.2  -0.2  -0.2  -0.2  -0.2  -0.2
       -0.2   0.2
  11    0.2  -0.2  -0.2  -0.2  -0.2  -0.2  -0.2  -0.2  -0.2  -0.2  -0.2  -0.2  -0.2  -0.2  -0.2  -0.2  -0.2  -0.2  -0.2  -0.2
       -0.2   0.2
  12    0.2  -0.2  -0.2  -0.2  -0.2  -0.2  -0.2  -0.2  -0.2  -0.2  -0.2  -0.2  -0.2  -0.2  -0.2  -0.2  -0.2  -0.2  -0.2  -0.2
       -0.2   0.2
  13    0.2  -0.2  -0.2  -0.2  -0.2  -0.2  -0.2  -0.2  -0.2  -0.2  -0.2  -0.2  -0.2  -0.2  -0.2  -0.2  -0.2  -0.2  -0.2  -0.2
       -0.2   0.2
  14    0.2  -0.2  -0.2  -0.2  -0.2  -0.2  -0.2  -0.2  -0.2  -0.2  -0.2  -0.2  -0.2  -0.2  -0.2  -0.2  -0.2  -0.2  -0.2  -0.2
       -0.2   0.2
  15    0.2  -0.2  -0.2  -0.2  -0.2  -0.2  -0.2  -0.2  -0.2  -0.2  -0.2  -0.2  -0.2  -0.2  -0.2  -0.2  -0.2  -0.2  -0.2  -0.2
       -0.2   0.2
  16    0.2  -0.2  -0.2  -0.2  -0.2  -0.2  -0.2  -0.2  -0.2  -0.2  -0.2  -0.2  -0.2  -0.2  -0.2  -0.2  -0.2  -0.2  -0.2  -0.2
       -0.2   0.2
  17    0.2   0.2   0.2   0.2   0.2   0.2   0.2   0.2   0.2   0.2   0.2   0.2   0.2   0.2   0.2   0.2   0.2   0.2   0.2   0.2
        0.2   0.2

     PRIMARY STORAGE COEF =  3.000000E-04 FOR LAYER   4

    HYD. COND. ALONG ROWS =   30.0000     FOR LAYER   4

 VERT HYD COND /THICKNESS =   3.00000     FOR LAYER   4

   SECONDARY STORAGE COEF =  0.200000     FOR LAYER   4



                   WETDRY PARAMETER FOR LAYER   4
 READING ON UNIT   10 WITH FORMAT: (24F3.0)            

         1     2     3     4     5     6     7     8     9    10    11    12    13    14    15    16    17    18    19    20
        21    22
 ...........................................................................................................................
   1    0.2   0.2   0.2   0.2   0.2   0.2   0.2   0.2   0.2   0.2   0.2   0.2   0.2   0.2   0.2   0.2   0.2   0.2   0.2   0.2
        0.2   0.2
   2    0.2  -0.2  -0.2  -0.2  -0.2  -0.2  -0.2  -0.2  -0.2  -0.2  -0.2  -0.2  -0.2  -0.2  -0.2  -0.2  -0.2  -0.2  -0.2  -0.2
       -0.2   0.2
   3    0.2  -0.2  -0.2  -0.2  -0.2  -0.2  -0.2  -0.2  -0.2  -0.2  -0.2  -0.2  -0.2  -0.2  -0.2  -0.2  -0.2  -0.2  -0.2  -0.2
       -0.2   0.2
   4    0.2  -0.2  -0.2  -0.2  -0.2  -0.2  -0.2  -0.2  -0.2  -0.2  -0.2  -0.2  -0.2  -0.2  -0.2  -0.2  -0.2  -0.2  -0.2  -0.2
       -0.2   0.2
   5    0.2  -0.2  -0.2  -0.2  -0.2  -0.2  -0.2  -0.2  -0.2  -0.2  -0.2  -0.2  -0.2  -0.2  -0.2  -0.2  -0.2  -0.2  -0.2  -0.2
       -0.2   0.2
   6    0.2  -0.2  -0.2  -0.2  -0.2  -0.2  -0.2  -0.2  -0.2  -0.2  -0.2  -0.2  -0.2  -0.2  -0.2  -0.2  -0.2  -0.2  -0.2  -0.2
       -0.2   0.2
   7    0.2  -0.2  -0.2  -0.2  -0.2  -0.2  -0.2  -0.2  -0.2  -0.2  -0.2  -0.2  -0.2  -0.2  -0.2  -0.2  -0.2  -0.2  -0.2  -0.2
       -0.2   0.2
   8    0.2  -0.2  -0.2  -0.2  -0.2  -0.2  -0.2  -0.2  -0.2  -0.2  -0.2  -0.2  -0.2  -0.2  -0.2  -0.2  -0.2  -0.2  -0.2  -0.2
       -0.2   0.2
   9    0.2  -0.2  -0.2  -0.2  -0.2  -0.2  -0.2  -0.2  -0.2  -0.2  -0.2  -0.2  -0.2  -0.2  -0.2  -0.2  -0.2  -0.2  -0.2  -0.2
       -0.2   0.2
  10    0.2  -0.2  -0.2  -0.2  -0.2  -0.2  -0.2  -0.2  -0.2  -0.2  -0.2  -0.2  -0.2  -0.2  -0.2  -0.2  -0.2  -0.2  -0.2  -0.2
       -0.2   0.2
  11    0.2  -0.2  -0.2  -0.2  -0.2  -0.2  -0.2  -0.2  -0.2  -0.2  -0.2  -0.2  -0.2  -0.2  -0.2  -0.2  -0.2  -0.2  -0.2  -0.2
       -0.2   0.2
  12    0.2  -0.2  -0.2  -0.2  -0.2  -0.2  -0.2  -0.2  -0.2  -0.2  -0.2  -0.2  -0.2  -0.2  -0.2  -0.2  -0.2  -0.2  -0.2  -0.2
       -0.2   0.2
  13    0.2  -0.2  -0.2  -0.2  -0.2  -0.2  -0.2  -0.2  -0.2  -0.2  -0.2  -0.2  -0.2  -0.2  -0.2  -0.2  -0.2  -0.2  -0.2  -0.2
       -0.2   0.2
  14    0.2  -0.2  -0.2  -0.2  -0.2  -0.2  -0.2  -0.2  -0.2  -0.2  -0.2  -0.2  -0.2  -0.2  -0.2  -0.2  -0.2  -0.2  -0.2  -0.2
       -0.2   0.2
  15    0.2  -0.2  -0.2  -0.2  -0.2  -0.2  -0.2  -0.2  -0.2  -0.2  -0.2  -0.2  -0.2  -0.2  -0.2  -0.2  -0.2  -0.2  -0.2  -0.2
       -0.2   0.2
  16    0.2  -0.2  -0.2  -0.2  -0.2  -0.2  -0.2  -0.2  -0.2  -0.2  -0.2  -0.2  -0.2  -0.2  -0.2  -0.2  -0.2  -0.2  -0.2  -0.2
       -0.2   0.2
  17    0.2   0.2   0.2   0.2   0.2   0.2   0.2   0.2   0.2   0.2   0.2   0.2   0.2   0.2   0.2   0.2   0.2   0.2   0.2   0.2
        0.2   0.2

     PRIMARY STORAGE COEF =  3.000000E-04 FOR LAYER   5

    HYD. COND. ALONG ROWS =   30.0000     FOR LAYER   5

   SECONDARY STORAGE COEF =  0.200000     FOR LAYER   5



                   WETDRY PARAMETER FOR LAYER   5
 READING ON UNIT   10 WITH FORMAT: (24F3.0)            

         1     2     3     4     5     6     7     8     9    10    11    12    13    14    15    16    17    18    19    20
        21    22
 ...........................................................................................................................
   1    0.2   0.2   0.2   0.2   0.2   0.2   0.2   0.2   0.2   0.2   0.2   0.2   0.2   0.2   0.2   0.2   0.2   0.2   0.2   0.2
        0.2   0.2
   2    0.2  -0.2  -0.2  -0.2  -0.2  -0.2  -0.2  -0.2  -0.2  -0.2  -0.2  -0.2  -0.2  -0.2  -0.2  -0.2  -0.2  -0.2  -0.2  -0.2
       -0.2   0.2
   3    0.2  -0.2  -0.2  -0.2  -0.2  -0.2  -0.2  -0.2  -0.2  -0.2  -0.2  -0.2  -0.2  -0.2  -0.2  -0.2  -0.2  -0.2  -0.2  -0.2
       -0.2   0.2
   4    0.2  -0.2  -0.2  -0.2  -0.2  -0.2  -0.2  -0.2  -0.2  -0.2  -0.2  -0.2  -0.2  -0.2  -0.2  -0.2  -0.2  -0.2  -0.2  -0.2
       -0.2   0.2
   5    0.2  -0.2  -0.2  -0.2  -0.2  -0.2  -0.2  -0.2  -0.2  -0.2  -0.2  -0.2  -0.2  -0.2  -0.2  -0.2  -0.2  -0.2  -0.2  -0.2
       -0.2   0.2
   6    0.2  -0.2  -0.2  -0.2  -0.2  -0.2  -0.2  -0.2  -0.2  -0.2  -0.2  -0.2  -0.2  -0.2  -0.2  -0.2  -0.2  -0.2  -0.2  -0.2
       -0.2   0.2
   7    0.2  -0.2  -0.2  -0.2  -0.2  -0.2  -0.2  -0.2  -0.2  -0.2  -0.2  -0.2  -0.2  -0.2  -0.2  -0.2  -0.2  -0.2  -0.2  -0.2
       -0.2   0.2
   8    0.2  -0.2  -0.2  -0.2  -0.2  -0.2  -0.2  -0.2  -0.2  -0.2  -0.2  -0.2  -0.2  -0.2  -0.2  -0.2  -0.2  -0.2  -0.2  -0.2
       -0.2   0.2
   9    0.2  -0.2  -0.2  -0.2  -0.2  -0.2  -0.2  -0.2  -0.2  -0.2  -0.2  -0.2  -0.2  -0.2  -0.2  -0.2  -0.2  -0.2  -0.2  -0.2
       -0.2   0.2
  10    0.2  -0.2  -0.2  -0.2  -0.2  -0.2  -0.2  -0.2  -0.2  -0.2  -0.2  -0.2  -0.2  -0.2  -0.2  -0.2  -0.2  -0.2  -0.2  -0.2
       -0.2   0.2
  11    0.2  -0.2  -0.2  -0.2  -0.2  -0.2  -0.2  -0.2  -0.2  -0.2  -0.2  -0.2  -0.2  -0.2  -0.2  -0.2  -0.2  -0.2  -0.2  -0.2
       -0.2   0.2
  12    0.2  -0.2  -0.2  -0.2  -0.2  -0.2  -0.2  -0.2  -0.2  -0.2  -0.2  -0.2  -0.2  -0.2  -0.2  -0.2  -0.2  -0.2  -0.2  -0.2
       -0.2   0.2
  13    0.2  -0.2  -0.2  -0.2  -0.2  -0.2  -0.2  -0.2  -0.2  -0.2  -0.2  -0.2  -0.2  -0.2  -0.2  -0.2  -0.2  -0.2  -0.2  -0.2
       -0.2   0.2
  14    0.2  -0.2  -0.2  -0.2  -0.2  -0.2  -0.2  -0.2  -0.2  -0.2  -0.2  -0.2  -0.2  -0.2  -0.2  -0.2  -0.2  -0.2  -0.2  -0.2
       -0.2   0.2
  15    0.2  -0.2  -0.2  -0.2  -0.2  -0.2  -0.2  -0.2  -0.2  -0.2  -0.2  -0.2  -0.2  -0.2  -0.2  -0.2  -0.2  -0.2  -0.2  -0.2
       -0.2   0.2
  16    0.2  -0.2  -0.2  -0.2  -0.2  -0.2  -0.2  -0.2  -0.2  -0.2  -0.2  -0.2  -0.2  -0.2  -0.2  -0.2  -0.2  -0.2  -0.2  -0.2
       -0.2   0.2
  17    0.2   0.2   0.2   0.2   0.2   0.2   0.2   0.2   0.2   0.2   0.2   0.2   0.2   0.2   0.2   0.2   0.2   0.2   0.2   0.2
        0.2   0.2


     0 Evapotranspiration parameters


     0 Recharge parameters
 TIMES FOR SPECIFIED-FLOW AND HEAD VALUES WILL BE READ ON UNIT  21 AND
 MULTIPLIED BY   1.000    .
     1 TIMES FOR SPECIFYING FLOWS AND HEADS:
                       1
                 ------------
                    0.000    

 CELL INDICIES AND SPECIFIED-HEAD VALUES WILL BE READ ON UNIT  21. HEAD VALUES
 WILL BE MULTIPLIED BY   1.000    .
 LAYER  ROW  COL IAUX             HEAD VALUES
 -------------------------------
    1    1    1   64   160.0    
    1    2    1   64   160.0    
    1    3    1   64   160.0    
    1    4    1   64   160.0    
    1    5    1   64   160.0    
    1    6    1   64   160.0    
    1    7    1   64   160.0    
    1    8    1   64   160.0    
    1    9    1   64   160.0    
    1   10    1   64   160.0    
    1   11    1   64   160.0    
    1   12    1   64   160.0    
    1   13    1   64   160.0    
    1   14    1   64   160.0    
    1   15    1   64   160.0    
    1   16    1   64   160.0    
    1   17    1   64   160.0    
    1    1   22   64   140.0    
    1    2   22   64   140.0    
    1    3   22   64   140.0    
    1    4   22   64   140.0    
    1    5   22   64   140.0    
    1    6   22   64   140.0    
    1    7   22   64   140.0    
    1    8   22   64   140.0    
    1    9   22   64   140.0    
    1   10   22   64   140.0    
    1   11   22   64   140.0    
    1   12   22   64   140.0    
    1   13   22   64   140.0    
    1   14   22   64   140.0    
    1   15   22   64   140.0    
    1   16   22   64   140.0    
    1   17   22   64   140.0    
    2    1    1   64   160.0    
    2    2    1   64   160.0    
    2    3    1   64   160.0    
    2    4    1   64   160.0    
    2    5    1   64   160.0    
    2    6    1   64   160.0    
    2    7    1   64   160.0    
    2    8    1   64   160.0    
    2    9    1   64   160.0    
    2   10    1   64   160.0    
    2   11    1   64   160.0    
    2   12    1   64   160.0    
    2   13    1   64   160.0    
    2   14    1   64   160.0    
    2   15    1   64   160.0    
    2   16    1   64   160.0    
    2   17    1   64   160.0    
    2    1   22   64   140.0    
    2    2   22   64   140.0    
    2    3   22   64   140.0    
    2    4   22   64   140.0    
    2    5   22   64   140.0    
    2    6   22   64   140.0    
    2    7   22   64   140.0    
    2    8   22   64   140.0    
    2    9   22   64   140.0    
    2   10   22   64   140.0    
    2   11   22   64   140.0    
    2   12   22   64   140.0    
    2   13   22   64   140.0    
    2   14   22   64   140.0    
    2   15   22   64   140.0    
    2   16   22   64   140.0    
    2   17   22   64   140.0    
    3    1    1   64   160.0    
    3    2    1   64   160.0    
    3    3    1   64   160.0    
    3    4    1   64   160.0    
    3    5    1   64   160.0    
    3    6    1   64   160.0    
    3    7    1   64   160.0    
    3    8    1   64   160.0    
    3    9    1   64   160.0    
    3   10    1   64   160.0    
    3   11    1   64   160.0    
    3   12    1   64   160.0    
    3   13    1   64   160.0    
    3   14    1   64   160.0    
    3   15    1   64   160.0    
    3   16    1   64   160.0    
    3   17    1   64   160.0    
    3    1   22   64   140.0    
    3    2   22   64   140.0    
    3    3   22   64   140.0    
    3    4   22   64   140.0    
    3    5   22   64   140.0    
    3    6   22   64   140.0    
    3    7   22   64   140.0    
    3    8   22   64   140.0    
    3    9   22   64   140.0    
    3   10   22   64   140.0    
    3   11   22   64   140.0    
    3   12   22   64   140.0    
    3   13   22   64   140.0    
    3   14   22   64   140.0    
    3   15   22   64   140.0    
    3   16   22   64   140.0    
    3   17   22   64   140.0    
    4    1    1   64   160.0    
    4    2    1   64   160.0    
    4    3    1   64   160.0    
    4    4    1   64   160.0    
    4    5    1   64   160.0    
    4    6    1   64   160.0    
    4    7    1   64   160.0    
    4    8    1   64   160.0    
    4    9    1   64   160.0    
    4   10    1   64   160.0    
    4   11    1   64   160.0    
    4   12    1   64   160.0    
    4   13    1   64   160.0    
    4   14    1   64   160.0    
    4   15    1   64   160.0    
    4   16    1   64   160.0    
    4   17    1   64   160.0    
    4    1   22   64   140.0    
    4    2   22   64   140.0    
    4    3   22   64   140.0    
    4    4   22   64   140.0    
    4    5   22   64   140.0    
    4    6   22   64   140.0    
    4    7   22   64   140.0    
    4    8   22   64   140.0    
    4    9   22   64   140.0    
    4   10   22   64   140.0    
    4   11   22   64   140.0    
    4   12   22   64   140.0    
    4   13   22   64   140.0    
    4   14   22   64   140.0    
    4   15   22   64   140.0    
    4   16   22   64   140.0    
    4   17   22   64   140.0    
    5    1    1   64   160.0    
    5    2    1   64   160.0    
    5    3    1   64   160.0    
    5    4    1   64   160.0    
    5    5    1   64   160.0    
    5    6    1   64   160.0    
    5    7    1   64   160.0    
    5    8    1   64   160.0    
    5    9    1   64   160.0    
    5   10    1   64   160.0    
    5   11    1   64   160.0    
    5   12    1   64   160.0    
    5   13    1   64   160.0    
    5   14    1   64   160.0    
    5   15    1   64   160.0    
    5   16    1   64   160.0    
    5   17    1   64   160.0    
    5    1   22   64   140.0    
    5    2   22   64   140.0    
    5    3   22   64   140.0    
    5    4   22   64   140.0    
    5    5   22   64   140.0    
    5    6   22   64   140.0    
    5    7   22   64   140.0    
    5    8   22   64   140.0    
    5    9   22   64   140.0    
    5   10   22   64   140.0    
    5   11   22   64   140.0    
    5   12   22   64   140.0    
    5   13   22   64   140.0    
    5   14   22   64   140.0    
    5   15   22   64   140.0    
    5   16   22   64   140.0    
    5   17   22   64   140.0    
    1    1    2   64   158.9    
    1    1    3   64   157.3    
    1    1    4   64   155.8    
    1    1    5   64   154.6    
    1    1    6   64   153.9    
    1    1    7   64   153.1    
    1    1    8   64   152.3    
    1    1    9   64   151.5    
    1    1   10   64   150.8    
    1    1   11   64   150.0    
    1    1   12   64   149.2    
    1    1   13   64   148.5    
    1    1   14   64   147.7    
    1    1   15   64   146.9    
    1    1   16   64   146.1    
    1    1   17   64   145.4    
    1    1   18   64   144.6    
    1    1   19   64   143.9    
    1    1   20   64   142.7    
    1    1   21   64   141.1    
    1   17    2   64   158.9    
    1   17    3   64   157.3    
    1   17    4   64   155.8    
    1   17    5   64   154.6    
    1   17    6   64   153.9    
    1   17    7   64   153.1    
    1   17    8   64   152.3    
    1   17    9   64   151.5    
    1   17   10   64   150.8    
    1   17   11   64   150.0    
    1   17   12   64   149.2    
    1   17   13   64   148.5    
    1   17   14   64   147.7    
    1   17   15   64   146.9    
    1   17   16   64   146.1    
    1   17   17   64   145.4    
    1   17   18   64   144.6    
    1   17   19   64   143.9    
    1   17   20   64   142.7    
    1   17   21   64   141.1    
    2    1    2   64   158.9    
    2    1    3   64   157.3    
    2    1    4   64   155.8    
    2    1    5   64   154.6    
    2    1    6   64   153.9    
    2    1    7   64   153.1    
    2    1    8   64   152.3    
    2    1    9   64   151.5    
    2    1   10   64   150.8    
    2    1   11   64   150.0    
    2    1   12   64   149.2    
    2    1   13   64   148.5    
    2    1   14   64   147.7    
    2    1   15   64   146.9    
    2    1   16   64   146.1    
    2    1   17   64   145.4    
    2    1   18   64   144.6    
    2    1   19   64   143.9    
    2    1   20   64   142.7    
    2    1   21   64   141.1    
    2   17    2   64   158.9    
    2   17    3   64   157.3    
    2   17    4   64   155.8    
    2   17    5   64   154.6    
    2   17    6   64   153.9    
    2   17    7   64   153.1    
    2   17    8   64   152.3    
    2   17    9   64   151.5    
    2   17   10   64   150.8    
    2   17   11   64   150.0    
    2   17   12   64   149.2    
    2   17   13   64   148.5    
    2   17   14   64   147.7    
    2   17   15   64   146.9    
    2   17   16   64   146.1    
    2   17   17   64   145.4    
    2   17   18   64   144.6    
    2   17   19   64   143.9    
    2   17   20   64   142.7    
    2   17   21   64   141.1    
    3    1    2   64   158.9    
    3    1    3   64   157.3    
    3    1    4   64   155.8    
    3    1    5   64   154.6    
    3    1    6   64   153.9    
    3    1    7   64   153.1    
    3    1    8   64   152.3    
    3    1    9   64   151.5    
    3    1   10   64   150.8    
    3    1   11   64   150.0    
    3    1   12   64   149.2    
    3    1   13   64   148.5    
    3    1   14   64   147.7    
    3    1   15   64   146.9    
    3    1   16   64   146.1    
    3    1   17   64   145.4    
    3    1   18   64   144.6    
    3    1   19   64   143.9    
    3    1   20   64   142.7    
    3    1   21   64   141.1    
    3   17    2   64   158.9    
    3   17    3   64   157.3    
    3   17    4   64   155.8    
    3   17    5   64   154.6    
    3   17    6   64   153.9    
    3   17    7   64   153.1    
    3   17    8   64   152.3    
    3   17    9   64   151.5    
    3   17   10   64   150.8    
    3   17   11   64   150.0    
    3   17   12   64   149.2    
    3   17   13   64   148.5    
    3   17   14   64   147.7    
    3   17   15   64   146.9    
    3   17   16   64   146.1    
    3   17   17   64   145.4    
    3   17   18   64   144.6    
    3   17   19   64   143.9    
    3   17   20   64   142.7    
    3   17   21   64   141.1    
    4    1    2   64   158.9    
    4    1    3   64   157.3    
    4    1    4   64   155.8    
    4    1    5   64   154.6    
    4    1    6   64   153.9    
    4    1    7   64   153.1    
    4    1    8   64   152.3    
    4    1    9   64   151.5    
    4    1   10   64   150.8    
    4    1   11   64   150.0    
    4    1   12   64   149.2    
    4    1   13   64   148.5    
    4    1   14   64   147.7    
    4    1   15   64   146.9    
    4    1   16   64   146.1    
    4    1   17   64   145.4    
    4    1   18   64   144.6    
    4    1   19   64   143.9    
    4    1   20   64   142.7    
    4    1   21   64   141.1    
    4   17    2   64   158.9    
    4   17    3   64   157.3    
    4   17    4   64   155.8    
    4   17    5   64   154.6    
    4   17    6   64   153.9    
    4   17    7   64   153.1    
    4   17    8   64   152.3    
    4   17    9   64   151.5    
    4   17   10   64   150.8    
    4   17   11   64   150.0    
    4   17   12   64   149.2    
    4   17   13   64   148.5    
    4   17   14   64   147.7    
    4   17   15   64   146.9    
    4   17   16   64   146.1    
    4   17   17   64   145.4    
    4   17   18   64   144.6    
    4   17   19   64   143.9    
    4   17   20   64   142.7    
    4   17   21   64   141.1    
    5    1    2   64   158.9    
    5    1    3   64   157.3    
    5    1    4   64   155.8    
    5    1    5   64   154.6    
    5    1    6   64   153.9    
    5    1    7   64   153.1    
    5    1    8   64   152.3    
    5    1    9   64   151.5    
    5    1   10   64   150.8    
    5    1   11   64   150.0    
    5    1   12   64   149.2    
    5    1   13   64   148.5    
    5    1   14   64   147.7    
    5    1   15   64   146.9    
    5    1   16   64   146.1    
    5    1   17   64   145.4    
    5    1   18   64   144.6    
    5    1   19   64   143.9    
    5    1   20   64   142.7    
    5    1   21   64   141.1    
    5   17    2   64   158.9    
    5   17    3   64   157.3    
    5   17    4   64   155.8    
    5   17    5   64   154.6    
    5   17    6   64   153.9    
    5   17    7   64   153.1    
    5   17    8   64   152.3    
    5   17    9   64   151.5    
    5   17   10   64   150.8    
    5   17   11   64   150.0    
    5   17   12   64   149.2    
    5   17   13   64   148.5    
    5   17   14   64   147.7    
    5   17   15   64   146.9    
    5   17   16   64   146.1    
    5   17   17   64   145.4    
    5   17   18   64   144.6    
    5   17   19   64   143.9    
    5   17   20   64   142.7    
    5   17   21   64   141.1    



   4 GAGING STATIONS WERE SPECIFIED.
     (Lakes are identified by a negative value of the Lake Number)
     RECORDS WILL BE WRITTEN TO SEPARATE OUTPUT FILES REPRESENTED BY FOLLOWING UNIT NUMBERS:

 Lake Gages:
  GAGE #    LAKE     UNIT   OUTTYPE
       1      -1     -26       1
       2      -2     -27       2
       3      -3     -28       0
       4      -4     -29       4




1
                            STRESS PERIOD NO.    1, LENGTH =   400.0000    
                            -----------------------------------------------

                              NUMBER OF TIME STEPS =    50

                               MULTIPLIER FOR DELT =     1.030

                            INITIAL TIME STEP SIZE =   3.546201    



                         ET SURFACE
 READING ON UNIT   11 WITH FORMAT: (24F6.1)            

         1     2     3     4     5     6     7     8     9    10    11    12    13    14    15    16    17    18    19    20
        21    22
 ...........................................................................................................................
   1  160.0 159.0 157.4 155.9 154.7 153.9 153.1 152.3 151.6 150.8 150.0 149.2 148.4 147.7 146.9 146.1 145.3 144.5 143.8 142.6
      141.0 140.0
   2  160.0 159.0 157.4 155.9 154.7 153.9 153.1 152.3 151.6 150.8 150.0 149.2 148.4 147.7 146.9 146.1 145.3 144.5 143.8 142.6
      141.0 140.0
   3  160.0 159.0 157.4 155.9 154.7 153.9 153.1 152.3 151.6 150.8 150.0 149.2 148.4 147.7 146.9 146.1 145.3 144.5 143.8 142.6
      141.0 140.0
   4  160.0 159.0 157.4 155.9 154.7 153.9 153.1 152.3 151.6 150.8 150.0 149.2 148.4 147.7 146.9 146.1 145.3 144.5 143.8 142.6
      141.0 140.0
   5  160.0 159.0 157.4 155.9 154.7 153.9 153.1 152.3 151.6 150.8 150.0 149.2 148.4 147.7 146.9 146.1 145.3 144.5 143.8 142.6
      141.0 140.0
   6  160.0 159.0 157.4 155.9 154.7 153.9 153.1 152.3 151.6 150.8 150.0 149.2 148.4 147.7 146.9 146.1 145.3 144.5 143.8 142.6
      141.0 140.0
   7  160.0 159.0 157.4 155.9 105.0 105.0 105.0 125.0 105.0 105.0 105.0 105.0 105.0 147.7 146.9 146.1 145.3 144.5 143.8 142.6
      141.0 140.0
   8  160.0 159.0 157.4 155.9 105.0  95.0 105.0 120.0 105.0  95.0  95.0  95.0 105.0 120.0  95.0  95.0 120.0  95.0  95.0 142.6
      141.0 140.0
   9  160.0 159.0 157.4 155.9 105.0  95.0  95.0 105.0  95.0  95.0  95.0  95.0  95.0 105.0  95.0  95.0 105.0  95.0  95.0 142.6
      141.0 140.0
  10  160.0 159.0 157.4 155.9 105.0  95.0 105.0 120.0 105.0  95.0  95.0  95.0 105.0 120.0 105.0 105.0 120.0 105.0 105.0 142.6
      141.0 140.0
  11  160.0 159.0 157.4 155.9 105.0 105.0 105.0 125.0 105.0 105.0 105.0 105.0 105.0 147.7 146.9 146.1 145.3 144.5 143.8 142.6
      141.0 140.0
  12  160.0 159.0 157.4 155.9 154.7 153.9 153.1 152.3 151.6 150.8 150.0 149.2 148.4 147.7 146.9 146.1 145.3 144.5 143.8 142.6
      141.0 140.0
  13  160.0 159.0 157.4 155.9 154.7 153.9 153.1 152.3 151.6 150.8 150.0 149.2 148.4 147.7 146.9 146.1 145.3 144.5 143.8 142.6
      141.0 140.0
  14  160.0 159.0 157.4 155.9 154.7 153.9 153.1 152.3 151.6 150.8 150.0 149.2 148.4 147.7 146.9 146.1 145.3 144.5 143.8 142.6
      141.0 140.0
  15  160.0 159.0 157.4 155.9 154.7 153.9 153.1 152.3 151.6 150.8 150.0 149.2 148.4 147.7 146.9 146.1 145.3 144.5 143.8 142.6
      141.0 140.0
  16  160.0 159.0 157.4 155.9 154.7 153.9 153.1 152.3 151.6 150.8 150.0 149.2 148.4 147.7 146.9 146.1 145.3 144.5 143.8 142.6
      141.0 140.0
  17  160.0 159.0 157.4 155.9 154.7 153.9 153.1 152.3 151.6 150.8 150.0 149.2 148.4 147.7 146.9 146.1 145.3 144.5 143.8 142.6
      141.0 140.0

  EVAPOTRANSPIRATION RATE =  4.120000E-02

         EXTINCTION DEPTH =   15.0000    

                 RECHARGE =   0.00000    


 LAKE PACKAGE ACTIVE:  CALCULATED LAKE STAGE FOR EACH TIME STEP WILL BE STORED IN HNEW ARRAY.

 INITIAL LAKE STAGE:  LAKE    STAGE

                        1   115.000
                        2   115.000
                        3   115.000
                        4   115.000




 If any subsequent steady-state stress periods, min. and max. stages for each lake will be read in Record 9a.





                      LAKE ID ARRAY FOR LAYER   1
 READING ON UNIT   16 WITH FORMAT: (24I3)              

        1   2   3   4   5   6   7   8   9  10  11  12  13  14  15  16  17  18  19  20  21  22
 ............................................................................................
   1    0   0   0   0   0   0   0   0   0   0   0   0   0   0   0   0   0   0   0   0   0   0
   2    0   0   0   0   0   0   0   0   0   0   0   0   0   0   0   0   0   0   0   0   0   0
   3    0   0   0   0   0   0   0   0   0   0   0   0   0   0   0   0   0   0   0   0   0   0
   4    0   0   0   0   0   0   0   0   0   0   0   0   0   0   0   0   0   0   0   0   0   0
   5    0   0   0   0   0   0   0   0   0   0   0   0   0   0   0   0   0   0   0   0   0   0
   6    0   0   0   0   0   0   0   0   0   0   0   0   0   0   0   0   0   0   0   0   0   0
   7    0   0   0   0   2   2   2   0   1   1   1   1   1   0   0   0   0   0   0   0   0   0
   8    0   0   0   0   2   2   2   0   1   1   1   1   1   0   3   3   0   4   4   0   0   0
   9    0   0   0   0   2   2   2   1   1   1   1   1   1   1   3   3   3   4   4   0   0   0
  10    0   0   0   0   2   2   2   0   1   1   1   1   1   0   3   3   0   4   4   0   0   0
  11    0   0   0   0   2   2   2   0   1   1   1   1   1   0   0   0   0   0   0   0   0   0
  12    0   0   0   0   0   0   0   0   0   0   0   0   0   0   0   0   0   0   0   0   0   0
  13    0   0   0   0   0   0   0   0   0   0   0   0   0   0   0   0   0   0   0   0   0   0
  14    0   0   0   0   0   0   0   0   0   0   0   0   0   0   0   0   0   0   0   0   0   0
  15    0   0   0   0   0   0   0   0   0   0   0   0   0   0   0   0   0   0   0   0   0   0
  16    0   0   0   0   0   0   0   0   0   0   0   0   0   0   0   0   0   0   0   0   0   0
  17    0   0   0   0   0   0   0   0   0   0   0   0   0   0   0   0   0   0   0   0   0   0



                      LAKE ID ARRAY FOR LAYER   2
 READING ON UNIT   16 WITH FORMAT: (24I3)              

        1   2   3   4   5   6   7   8   9  10  11  12  13  14  15  16  17  18  19  20  21  22
 ............................................................................................
   1    0   0   0   0   0   0   0   0   0   0   0   0   0   0   0   0   0   0   0   0   0   0
   2    0   0   0   0   0   0   0   0   0   0   0   0   0   0   0   0   0   0   0   0   0   0
   3    0   0   0   0   0   0   0   0   0   0   0   0   0   0   0   0   0   0   0   0   0   0
   4    0   0   0   0   0   0   0   0   0   0   0   0   0   0   0   0   0   0   0   0   0   0
   5    0   0   0   0   0   0   0   0   0   0   0   0   0   0   0   0   0   0   0   0   0   0
   6    0   0   0   0   0   0   0   0   0   0   0   0   0   0   0   0   0   0   0   0   0   0
   7    0   0   0   0   0   0   0   0   0   0   0   0   0   0   0   0   0   0   0   0   0   0
   8    0   0   0   0   0   2   0   0   0   1   1   1   0   0   3   3   0   4   4   0   0   0
   9    0   0   0   0   0   2   2   0   1   1   1   1   1   0   3   3   0   4   4   0   0   0
  10    0   0   0   0   0   2   0   0   0   1   1   1   0   0   0   0   0   0   0   0   0   0
  11    0   0   0   0   0   0   0   0   0   0   0   0   0   0   0   0   0   0   0   0   0   0
  12    0   0   0   0   0   0   0   0   0   0   0   0   0   0   0   0   0   0   0   0   0   0
  13    0   0   0   0   0   0   0   0   0   0   0   0   0   0   0   0   0   0   0   0   0   0
  14    0   0   0   0   0   0   0   0   0   0   0   0   0   0   0   0   0   0   0   0   0   0
  15    0   0   0   0   0   0   0   0   0   0   0   0   0   0   0   0   0   0   0   0   0   0
  16    0   0   0   0   0   0   0   0   0   0   0   0   0   0   0   0   0   0   0   0   0   0
  17    0   0   0   0   0   0   0   0   0   0   0   0   0   0   0   0   0   0   0   0   0   0

            LAKE ID ARRAY =              0 FOR LAYER   3

            LAKE ID ARRAY =              0 FOR LAYER   4

            LAKE ID ARRAY =              0 FOR LAYER   5





   LAKEBED LEAKANCE ARRAY =  0.100000     FOR LAYER   1

   LAKEBED LEAKANCE ARRAY =  0.100000     FOR LAYER   2

   LAKEBED LEAKANCE ARRAY =  0.100000     FOR LAYER   3

   LAKEBED LEAKANCE ARRAY =  0.100000     FOR LAYER   4

   LAKEBED LEAKANCE ARRAY =  0.100000     FOR LAYER   5

       LOCATIONS, LAKE #, INTERFACE TYPE FOR GRID CELLS ADJACENT TO LAKES:
     -----------------------------------------------------------------------
     LAYER #    ROW #    COLUMN #   LAKE #  INTERFACE TYPE  LAKEBED LEAKANCE
         1         7         4         2         2             0.10000
         1         8         4         2         2             0.10000
         1         9         4         2         2             0.10000
         1        10         4         2         2             0.10000
         1        11         4         2         2             0.10000
         1         6         5         2         3             0.10000
         2         7         5         2         6             0.10000
         2         8         5         2         6             0.10000
         2         8         5         2         2             0.10000
         2         9         5         2         6             0.10000
         2         9         5         2         2             0.10000
         2        10         5         2         6             0.10000
         2        10         5         2         2             0.10000
         2        11         5         2         6             0.10000
         1        12         5         2         4             0.10000
         1         6         6         2         3             0.10000
         2         7         6         2         6             0.10000
         2         7         6         2         3             0.10000
         3         8         6         2         6             0.10000
         3         9         6         2         6             0.10000
         3        10         6         2         6             0.10000
         2        11         6         2         6             0.10000
         2        11         6         2         4             0.10000
         1        12         6         2         4             0.10000
         1         6         7         2         3             0.10000
         2         7         7         2         6             0.10000
         2         8         7         2         6             0.10000
         2         8         7         2         1             0.10000
         2         8         7         2         3             0.10000
         3         9         7         2         6             0.10000
         2        10         7         2         6             0.10000
         2        10         7         2         1             0.10000
         2        10         7         2         4             0.10000
         2        11         7         2         6             0.10000
         1        12         7         2         4             0.10000
         1         7         8         2         1             0.10000
         1         7         8         1         2             0.10000
         1         8         8         2         1             0.10000
         1         8         8         1         2             0.10000
         1         8         8         1         3             0.10000
         2         9         8         1         6             0.10000
         2         9         8         2         1             0.10000
         2         9         8         1         2             0.10000
         1        10         8         2         1             0.10000
         1        10         8         1         2             0.10000
         1        10         8         1         4             0.10000
         1        11         8         2         1             0.10000
         1        11         8         1         2             0.10000
         1         6         9         1         3             0.10000
         2         7         9         1         6             0.10000
         2         8         9         1         6             0.10000
         2         8         9         1         2             0.10000
         2         8         9         1         3             0.10000
         3         9         9         1         6             0.10000
         2        10         9         1         6             0.10000
         2        10         9         1         2             0.10000
         2        10         9         1         4             0.10000
         2        11         9         1         6             0.10000
         1        12         9         1         4             0.10000
         1         6        10         1         3             0.10000
         2         7        10         1         6             0.10000
         2         7        10         1         3             0.10000
         3         8        10         1         6             0.10000
         3         9        10         1         6             0.10000
         3        10        10         1         6             0.10000
         2        11        10         1         6             0.10000
         2        11        10         1         4             0.10000
         1        12        10         1         4             0.10000
         1         6        11         1         3             0.10000
         2         7        11         1         6             0.10000
         2         7        11         1         3             0.10000
         3         8        11         1         6             0.10000
         3         9        11         1         6             0.10000
         3        10        11         1         6             0.10000
         2        11        11         1         6             0.10000
         2        11        11         1         4             0.10000
         1        12        11         1         4             0.10000
         1         6        12         1         3             0.10000
         2         7        12         1         6             0.10000
         2         7        12         1         3             0.10000
         3         8        12         1         6             0.10000
         3         9        12         1         6             0.10000
         3        10        12         1         6             0.10000
         2        11        12         1         6             0.10000
         2        11        12         1         4             0.10000
         1        12        12         1         4             0.10000
         1         6        13         1         3             0.10000
         2         7        13         1         6             0.10000
         2         8        13         1         6             0.10000
         2         8        13         1         1             0.10000
         2         8        13         1         3             0.10000
         3         9        13         1         6             0.10000
         2        10        13         1         6             0.10000
         2        10        13         1         1             0.10000
         2        10        13         1         4             0.10000
         2        11        13         1         6             0.10000
         1        12        13         1         4             0.10000
         1         7        14         1         1             0.10000
         1         8        14         1         1             0.10000
         1         8        14         3         2             0.10000
         1         8        14         1         3             0.10000
         2         8        14         3         2             0.10000
         2         9        14         1         6             0.10000
         2         9        14         1         1             0.10000
         2         9        14         3         2             0.10000
         1        10        14         1         1             0.10000
         1        10        14         3         2             0.10000
         1        10        14         1         4             0.10000
         1        11        14         1         1             0.10000
         1         7        15         3         3             0.10000
         2         7        15         3         3             0.10000
         3         8        15         3         6             0.10000
         3         9        15         3         6             0.10000
         2        10        15         3         6             0.10000
         2        10        15         3         4             0.10000
         1        11        15         3         4             0.10000
         1         7        16         3         3             0.10000
         2         7        16         3         3             0.10000
         3         8        16         3         6             0.10000
         3         9        16         3         6             0.10000
         2        10        16         3         6             0.10000
         2        10        16         3         4             0.10000
         1        11        16         3         4             0.10000
         1         8        17         3         1             0.10000
         1         8        17         4         2             0.10000
         1         8        17         3         3             0.10000
         2         8        17         3         1             0.10000
         2         8        17         4         2             0.10000
         2         9        17         3         6             0.10000
         2         9        17         3         1             0.10000
         2         9        17         4         2             0.10000
         1        10        17         3         1             0.10000
         1        10        17         4         2             0.10000
         1        10        17         3         4             0.10000
         1         7        18         4         3             0.10000
         2         7        18         4         3             0.10000
         3         8        18         4         6             0.10000
         3         9        18         4         6             0.10000
         2        10        18         4         6             0.10000
         2        10        18         4         4             0.10000
         1        11        18         4         4             0.10000
         1         7        19         4         3             0.10000
         2         7        19         4         3             0.10000
         3         8        19         4         6             0.10000
         3         9        19         4         6             0.10000
         2        10        19         4         6             0.10000
         2        10        19         4         4             0.10000
         1        11        19         4         4             0.10000
         1         8        20         4         1             0.10000
         2         8        20         4         1             0.10000
         1         9        20         4         1             0.10000
         2         9        20         4         1             0.10000
         1        10        20         4         1             0.10000

     NUMBER OF LAKE-AQUIFER CELL INTERFACES =   153


 STAGE/VOLUME RELATION FOR LAKE  1

       STAGE       VOLUME         AREA

   9.7000E+01   0.0000E+00   2.7500E+06
   9.7333E+01   9.1667E+05   2.7500E+06
   9.7667E+01   1.8333E+06   2.7500E+06
   9.8000E+01   2.7500E+06   2.7500E+06
   9.8333E+01   3.6667E+06   2.7500E+06
   9.8667E+01   4.5833E+06   2.7500E+06
   9.9000E+01   5.5000E+06   2.7500E+06
   9.9333E+01   6.4167E+06   2.7500E+06
   9.9667E+01   7.3333E+06   2.7500E+06
   1.0000E+02   8.2500E+06   2.7500E+06
   1.0033E+02   9.1667E+06   2.7500E+06
   1.0067E+02   1.0083E+07   2.7500E+06
   1.0100E+02   1.1000E+07   2.7500E+06
   1.0133E+02   1.1917E+07   2.7500E+06
   1.0167E+02   1.2833E+07   2.7500E+06
   1.0200E+02   1.3750E+07   2.7500E+06
   1.0233E+02   1.4667E+07   2.7500E+06
   1.0267E+02   1.5583E+07   2.7500E+06
   1.0300E+02   1.6500E+07   2.7500E+06
   1.0333E+02   1.7417E+07   2.7500E+06
   1.0367E+02   1.8333E+07   2.7500E+06
   1.0400E+02   1.9250E+07   2.7500E+06
   1.0433E+02   2.0167E+07   2.7500E+06
   1.0467E+02   2.1083E+07   2.7500E+06
   1.0500E+02   2.2000E+07   2.7500E+06
   1.0533E+02   2.2917E+07   2.7500E+06
   1.0567E+02   2.3833E+07   2.7500E+06
   1.0600E+02   2.4750E+07   2.7500E+06
   1.0633E+02   2.5667E+07   2.7500E+06
   1.0667E+02   2.6583E+07   2.7500E+06
   1.0700E+02   2.7500E+07   6.7500E+06
   1.0733E+02   2.9750E+07   6.7500E+06
   1.0767E+02   3.2000E+07   6.7500E+06
   1.0800E+02   3.4250E+07   6.7500E+06
   1.0833E+02   3.6500E+07   6.7500E+06
   1.0867E+02   3.8750E+07   6.7500E+06
   1.0900E+02   4.1000E+07   6.7500E+06
   1.0933E+02   4.3250E+07   6.7500E+06
   1.0967E+02   4.5500E+07   6.7500E+06
   1.1000E+02   4.7750E+07   6.7500E+06
   1.1033E+02   5.0000E+07   6.7500E+06
   1.1067E+02   5.2250E+07   6.7500E+06
   1.1100E+02   5.4500E+07   6.7500E+06
   1.1133E+02   5.6750E+07   6.7500E+06
   1.1167E+02   5.9000E+07   6.7500E+06
   1.1200E+02   6.1250E+07   6.7500E+06
   1.1233E+02   6.3500E+07   6.7500E+06
   1.1267E+02   6.5750E+07   6.7500E+06
   1.1300E+02   6.8000E+07   6.7500E+06
   1.1333E+02   7.0250E+07   6.7500E+06
   1.1367E+02   7.2500E+07   6.7500E+06
   1.1400E+02   7.4750E+07   6.7500E+06
   1.1433E+02   7.7000E+07   6.7500E+06
   1.1467E+02   7.9250E+07   6.7500E+06
   1.1500E+02   8.1500E+07   6.7500E+06
   1.1533E+02   8.3750E+07   6.7500E+06
   1.1567E+02   8.6000E+07   6.7500E+06
   1.1600E+02   8.8250E+07   6.7500E+06
   1.1633E+02   9.0500E+07   6.7500E+06
   1.1667E+02   9.2750E+07   6.7500E+06
   1.1700E+02   9.5000E+07   6.7500E+06
   1.1733E+02   9.7251E+07   6.7500E+06
   1.1767E+02   9.9501E+07   6.7500E+06
   1.1800E+02   1.0175E+08   6.7500E+06
   1.1833E+02   1.0400E+08   6.7500E+06
   1.1867E+02   1.0625E+08   6.7500E+06
   1.1900E+02   1.0850E+08   6.7500E+06
   1.1933E+02   1.1075E+08   6.7500E+06
   1.1967E+02   1.1300E+08   6.7500E+06
   1.2000E+02   1.1525E+08   6.7500E+06
   1.2033E+02   1.1750E+08   6.7500E+06
   1.2067E+02   1.1975E+08   6.7500E+06
   1.2100E+02   1.2200E+08   6.7500E+06
   1.2133E+02   1.2425E+08   6.7500E+06
   1.2167E+02   1.2650E+08   6.7500E+06
   1.2200E+02   1.2875E+08   6.7500E+06
   1.2233E+02   1.3100E+08   6.7500E+06
   1.2267E+02   1.3325E+08   6.7500E+06
   1.2300E+02   1.3550E+08   6.7500E+06
   1.2333E+02   1.3775E+08   6.7500E+06
   1.2367E+02   1.4000E+08   6.7500E+06
   1.2400E+02   1.4225E+08   6.7500E+06
   1.2433E+02   1.4450E+08   6.7500E+06
   1.2467E+02   1.4675E+08   6.7500E+06
   1.2500E+02   1.4900E+08   6.7500E+06
   1.2533E+02   1.5125E+08   6.7500E+06
   1.2567E+02   1.5350E+08   6.7500E+06
   1.2600E+02   1.5575E+08   6.7500E+06
   1.2633E+02   1.5800E+08   6.7500E+06
   1.2667E+02   1.6025E+08   6.7500E+06
   1.2700E+02   1.6250E+08   6.7500E+06
   1.2733E+02   1.6475E+08   6.7500E+06
   1.2767E+02   1.6700E+08   6.7500E+06
   1.2800E+02   1.6925E+08   6.7500E+06
   1.2833E+02   1.7150E+08   6.7500E+06
   1.2867E+02   1.7375E+08   6.7500E+06
   1.2900E+02   1.7600E+08   6.7500E+06
   1.2933E+02   1.7825E+08   6.7500E+06
   1.2967E+02   1.8050E+08   6.7500E+06
   1.3000E+02   1.8275E+08   6.7500E+06
   1.3033E+02   1.8500E+08   6.7500E+06
   1.3067E+02   1.8725E+08   6.7500E+06
   1.3100E+02   1.8950E+08   6.7500E+06
   1.3133E+02   1.9175E+08   6.7500E+06
   1.3167E+02   1.9400E+08   6.7500E+06
   1.3200E+02   1.9625E+08   6.7500E+06
   1.3233E+02   1.9850E+08   6.7500E+06
   1.3267E+02   2.0075E+08   6.7500E+06
   1.3300E+02   2.0300E+08   6.7500E+06
   1.3333E+02   2.0525E+08   6.7500E+06
   1.3367E+02   2.0750E+08   6.7500E+06
   1.3400E+02   2.0975E+08   6.7500E+06
   1.3433E+02   2.1200E+08   6.7500E+06
   1.3467E+02   2.1425E+08   6.7500E+06
   1.3500E+02   2.1650E+08   6.7500E+06
   1.3533E+02   2.1875E+08   6.7500E+06
   1.3567E+02   2.2100E+08   6.7500E+06
   1.3600E+02   2.2325E+08   6.7500E+06
   1.3633E+02   2.2550E+08   6.7500E+06
   1.3667E+02   2.2775E+08   6.7500E+06
   1.3700E+02   2.3000E+08   6.7500E+06
   1.3733E+02   2.3225E+08   6.7500E+06
   1.3767E+02   2.3450E+08   6.7500E+06
   1.3800E+02   2.3675E+08   6.7500E+06
   1.3833E+02   2.3900E+08   6.7500E+06
   1.3867E+02   2.4124E+08   6.7500E+06
   1.3900E+02   2.4349E+08   6.7500E+06
   1.3933E+02   2.4574E+08   6.7500E+06
   1.3967E+02   2.4799E+08   6.7500E+06
   1.4000E+02   2.5024E+08   6.7500E+06
   1.4033E+02   2.5249E+08   6.7500E+06
   1.4067E+02   2.5474E+08   6.7500E+06
   1.4100E+02   2.5699E+08   6.7500E+06
   1.4133E+02   2.5924E+08   6.7500E+06
   1.4167E+02   2.6149E+08   6.7500E+06
   1.4200E+02   2.6374E+08   6.7500E+06
   1.4233E+02   2.6599E+08   6.7500E+06
   1.4267E+02   2.6824E+08   6.7500E+06
   1.4300E+02   2.7049E+08   6.7500E+06
   1.4333E+02   2.7274E+08   6.7500E+06
   1.4367E+02   2.7499E+08   6.7500E+06
   1.4400E+02   2.7724E+08   6.7500E+06
   1.4433E+02   2.7949E+08   6.7500E+06
   1.4467E+02   2.8174E+08   6.7500E+06
   1.4500E+02   2.8399E+08   6.7500E+06
   1.4533E+02   2.8624E+08   6.7500E+06
   1.4567E+02   2.8849E+08   6.7500E+06
   1.4600E+02   2.9074E+08   6.7500E+06
   1.4633E+02   2.9299E+08   6.7500E+06
   1.4667E+02   2.9524E+08   6.7500E+06
   1.4700E+02   2.9749E+08   6.7500E+06



 STAGE/VOLUME RELATION FOR LAKE  2

       STAGE       VOLUME         AREA

   9.7000E+01   0.0000E+00   1.0000E+06
   9.7333E+01   3.3333E+05   1.0000E+06
   9.7667E+01   6.6667E+05   1.0000E+06
   9.8000E+01   1.0000E+06   1.0000E+06
   9.8333E+01   1.3333E+06   1.0000E+06
   9.8667E+01   1.6667E+06   1.0000E+06
   9.9000E+01   2.0000E+06   1.0000E+06
   9.9333E+01   2.3333E+06   1.0000E+06
   9.9667E+01   2.6667E+06   1.0000E+06
   1.0000E+02   3.0000E+06   1.0000E+06
   1.0033E+02   3.3333E+06   1.0000E+06
   1.0067E+02   3.6667E+06   1.0000E+06
   1.0100E+02   4.0000E+06   1.0000E+06
   1.0133E+02   4.3333E+06   1.0000E+06
   1.0167E+02   4.6667E+06   1.0000E+06
   1.0200E+02   5.0000E+06   1.0000E+06
   1.0233E+02   5.3333E+06   1.0000E+06
   1.0267E+02   5.6667E+06   1.0000E+06
   1.0300E+02   6.0000E+06   1.0000E+06
   1.0333E+02   6.3333E+06   1.0000E+06
   1.0367E+02   6.6667E+06   1.0000E+06
   1.0400E+02   7.0000E+06   1.0000E+06
   1.0433E+02   7.3333E+06   1.0000E+06
   1.0467E+02   7.6667E+06   1.0000E+06
   1.0500E+02   8.0000E+06   1.0000E+06
   1.0533E+02   8.3333E+06   1.0000E+06
   1.0567E+02   8.6667E+06   1.0000E+06
   1.0600E+02   9.0000E+06   1.0000E+06
   1.0633E+02   9.3333E+06   1.0000E+06
   1.0667E+02   9.6667E+06   1.0000E+06
   1.0700E+02   1.0000E+07   3.7500E+06
   1.0733E+02   1.1250E+07   3.7500E+06
   1.0767E+02   1.2500E+07   3.7500E+06
   1.0800E+02   1.3750E+07   3.7500E+06
   1.0833E+02   1.5000E+07   3.7500E+06
   1.0867E+02   1.6250E+07   3.7500E+06
   1.0900E+02   1.7500E+07   3.7500E+06
   1.0933E+02   1.8750E+07   3.7500E+06
   1.0967E+02   2.0000E+07   3.7500E+06
   1.1000E+02   2.1250E+07   3.7500E+06
   1.1033E+02   2.2500E+07   3.7500E+06
   1.1067E+02   2.3750E+07   3.7500E+06
   1.1100E+02   2.5000E+07   3.7500E+06
   1.1133E+02   2.6250E+07   3.7500E+06
   1.1167E+02   2.7500E+07   3.7500E+06
   1.1200E+02   2.8750E+07   3.7500E+06
   1.1233E+02   3.0000E+07   3.7500E+06
   1.1267E+02   3.1250E+07   3.7500E+06
   1.1300E+02   3.2500E+07   3.7500E+06
   1.1333E+02   3.3750E+07   3.7500E+06
   1.1367E+02   3.5000E+07   3.7500E+06
   1.1400E+02   3.6250E+07   3.7500E+06
   1.1433E+02   3.7500E+07   3.7500E+06
   1.1467E+02   3.8750E+07   3.7500E+06
   1.1500E+02   4.0000E+07   3.7500E+06
   1.1533E+02   4.1250E+07   3.7500E+06
   1.1567E+02   4.2500E+07   3.7500E+06
   1.1600E+02   4.3750E+07   3.7500E+06
   1.1633E+02   4.5000E+07   3.7500E+06
   1.1667E+02   4.6250E+07   3.7500E+06
   1.1700E+02   4.7500E+07   3.7500E+06
   1.1733E+02   4.8750E+07   3.7500E+06
   1.1767E+02   5.0000E+07   3.7500E+06
   1.1800E+02   5.1250E+07   3.7500E+06
   1.1833E+02   5.2500E+07   3.7500E+06
   1.1867E+02   5.3750E+07   3.7500E+06
   1.1900E+02   5.5000E+07   3.7500E+06
   1.1933E+02   5.6250E+07   3.7500E+06
   1.1967E+02   5.7500E+07   3.7500E+06
   1.2000E+02   5.8750E+07   3.7500E+06
   1.2033E+02   6.0000E+07   3.7500E+06
   1.2067E+02   6.1250E+07   3.7500E+06
   1.2100E+02   6.2500E+07   3.7500E+06
   1.2133E+02   6.3750E+07   3.7500E+06
   1.2167E+02   6.5000E+07   3.7500E+06
   1.2200E+02   6.6250E+07   3.7500E+06
   1.2233E+02   6.7500E+07   3.7500E+06
   1.2267E+02   6.8750E+07   3.7500E+06
   1.2300E+02   7.0000E+07   3.7500E+06
   1.2333E+02   7.1250E+07   3.7500E+06
   1.2367E+02   7.2500E+07   3.7500E+06
   1.2400E+02   7.3750E+07   3.7500E+06
   1.2433E+02   7.5000E+07   3.7500E+06
   1.2467E+02   7.6250E+07   3.7500E+06
   1.2500E+02   7.7500E+07   3.7500E+06
   1.2533E+02   7.8750E+07   3.7500E+06
   1.2567E+02   8.0000E+07   3.7500E+06
   1.2600E+02   8.1250E+07   3.7500E+06
   1.2633E+02   8.2500E+07   3.7500E+06
   1.2667E+02   8.3750E+07   3.7500E+06
   1.2700E+02   8.5000E+07   3.7500E+06
   1.2733E+02   8.6250E+07   3.7500E+06
   1.2767E+02   8.7500E+07   3.7500E+06
   1.2800E+02   8.8750E+07   3.7500E+06
   1.2833E+02   9.0000E+07   3.7500E+06
   1.2867E+02   9.1250E+07   3.7500E+06
   1.2900E+02   9.2500E+07   3.7500E+06
   1.2933E+02   9.3750E+07   3.7500E+06
   1.2967E+02   9.5000E+07   3.7500E+06
   1.3000E+02   9.6251E+07   3.7500E+06
   1.3033E+02   9.7501E+07   3.7500E+06
   1.3067E+02   9.8751E+07   3.7500E+06
   1.3100E+02   1.0000E+08   3.7500E+06
   1.3133E+02   1.0125E+08   3.7500E+06
   1.3167E+02   1.0250E+08   3.7500E+06
   1.3200E+02   1.0375E+08   3.7500E+06
   1.3233E+02   1.0500E+08   3.7500E+06
   1.3267E+02   1.0625E+08   3.7500E+06
   1.3300E+02   1.0750E+08   3.7500E+06
   1.3333E+02   1.0875E+08   3.7500E+06
   1.3367E+02   1.1000E+08   3.7500E+06
   1.3400E+02   1.1125E+08   3.7500E+06
   1.3433E+02   1.1250E+08   3.7500E+06
   1.3467E+02   1.1375E+08   3.7500E+06
   1.3500E+02   1.1500E+08   3.7500E+06
   1.3533E+02   1.1625E+08   3.7500E+06
   1.3567E+02   1.1750E+08   3.7500E+06
   1.3600E+02   1.1875E+08   3.7500E+06
   1.3633E+02   1.2000E+08   3.7500E+06
   1.3667E+02   1.2125E+08   3.7500E+06
   1.3700E+02   1.2250E+08   3.7500E+06
   1.3733E+02   1.2375E+08   3.7500E+06
   1.3767E+02   1.2500E+08   3.7500E+06
   1.3800E+02   1.2625E+08   3.7500E+06
   1.3833E+02   1.2750E+08   3.7500E+06
   1.3867E+02   1.2875E+08   3.7500E+06
   1.3900E+02   1.3000E+08   3.7500E+06
   1.3933E+02   1.3125E+08   3.7500E+06
   1.3967E+02   1.3250E+08   3.7500E+06
   1.4000E+02   1.3375E+08   3.7500E+06
   1.4033E+02   1.3500E+08   3.7500E+06
   1.4067E+02   1.3625E+08   3.7500E+06
   1.4100E+02   1.3750E+08   3.7500E+06
   1.4133E+02   1.3875E+08   3.7500E+06
   1.4167E+02   1.4000E+08   3.7500E+06
   1.4200E+02   1.4125E+08   3.7500E+06
   1.4233E+02   1.4250E+08   3.7500E+06
   1.4267E+02   1.4375E+08   3.7500E+06
   1.4300E+02   1.4500E+08   3.7500E+06
   1.4333E+02   1.4625E+08   3.7500E+06
   1.4367E+02   1.4750E+08   3.7500E+06
   1.4400E+02   1.4875E+08   3.7500E+06
   1.4433E+02   1.5000E+08   3.7500E+06
   1.4467E+02   1.5125E+08   3.7500E+06
   1.4500E+02   1.5250E+08   3.7500E+06
   1.4533E+02   1.5375E+08   3.7500E+06
   1.4567E+02   1.5500E+08   3.7500E+06
   1.4600E+02   1.5625E+08   3.7500E+06
   1.4633E+02   1.5750E+08   3.7500E+06
   1.4667E+02   1.5875E+08   3.7500E+06
   1.4700E+02   1.6000E+08   3.7500E+06



 STAGE/VOLUME RELATION FOR LAKE  3

       STAGE       VOLUME         AREA

   9.7000E+01   0.0000E+00   1.0000E+06
   9.7333E+01   3.3333E+05   1.0000E+06
   9.7667E+01   6.6667E+05   1.0000E+06
   9.8000E+01   1.0000E+06   1.0000E+06
   9.8333E+01   1.3333E+06   1.0000E+06
   9.8667E+01   1.6667E+06   1.0000E+06
   9.9000E+01   2.0000E+06   1.0000E+06
   9.9333E+01   2.3333E+06   1.0000E+06
[...]

   1 CONNECTED LAKE SET

   4 LAKES:    1  2  3  4
 
 SOLVING FOR HEAD 
    20 ITERATIONS FOR TIME STEP  48 IN STRESS PERIOD    2

 HEAD/DRAWDOWN PRINTOUT FLAG = 0     TOTAL BUDGET PRINTOUT FLAG = 0
 CELL-BY-CELL FLOW TERM FLAG = 1

 OUTPUT FLAGS FOR ALL LAYERS ARE THE SAME:
   HEAD    DRAWDOWN  HEAD  DRAWDOWN
 PRINTOUT  PRINTOUT  SAVE    SAVE
 ----------------------------------
     0         0       0       0

 --------------------------------------------------------------------------------
 TIME STEP  48     NUMBER OF CONNECTED LAKES IS  4     TOTAL AREA =  0.137500000D+08



           SURFACE       SILL   WATER BUDGET  STAGE  CORRECTED   LAKE VOLUME
  LAKE       AREA      ELEVATION   STAGE   CORRECTION  STAGE     CORRECTION
 --------------------------------------------------------------------------------

   1     0.67500E+07 -99999.00    118.15      0.22    118.37    0.15106E+07
 --------------------------------------------------------------------------------

   2     0.37500E+07    112.00    118.70     -0.33    118.37   -0.12405E+07
 --------------------------------------------------------------------------------

   3     0.17500E+07    110.00    118.22      0.15    118.37    0.26571E+06
 --------------------------------------------------------------------------------

   4     0.15000E+07    108.00    118.73     -0.36    118.37   -0.53576E+06


     0  LAKE CELLS ARE DRY.

 PERIOD     2     TIME STEP    48     TIME STEP LENGTH  1.4227E+01
 PERIOD TIME  3.7025E+02     TOTAL SIMULATION TIME  7.7025E+02


                 HYDROLOGIC BUDGET SUMMARIES FOR SIMULATED LAKES
     (ALL FLUID FLUXES ARE VOLUMES ADDED TO THE LAKE DURING PRESENT TIME STEP)
     -------------------------------------------------------------------------
 LAKE    STAGE         VOLUME     VOL.CHANGE      PRECIP     EVAPORATION        RUNOFF
   1   118.3689     1.0424E+08    3.7886E+06    1.1140E+06    9.8913E+05    0.0000E+00
   2   118.3689     5.2633E+07    2.1047E+06    6.1887E+05    5.4952E+05    0.0000E+00
   3   118.3689     2.9895E+07    9.8221E+05    2.8881E+05    2.5644E+05    0.0000E+00
   4   118.3689     2.7053E+07    8.4189E+05    2.4755E+05    2.1981E+05    0.0000E+00

            GROUND WATER            SURFACE WATER        WATER
 LAKE    INFLOW     OUTFLOW      INFLOW     OUTFLOW       USE
   1  2.1532E+06  0.0000E+00  0.0000E+00  0.0000E+00  0.0000E+00
   2  3.2834E+06  7.5783E+03  0.0000E+00  0.0000E+00  0.0000E+00
   3  6.8414E+05  8.9714E+00  0.0000E+00  0.0000E+00  0.0000E+00
   4  1.3513E+06  1.3552E+03  0.0000E+00  0.0000E+00  0.0000E+00

      CONNECTED LAKE   TIME-STEP         STAGE-CHANGE          PERCENT
 LAKE    INFLUX      SURFACE AREA   TIME STEP  CUMULATIVE    DISCREPANCY
   1   1.5106E+06     6.7500E+06   5.6126E-01  3.3689E+00       0.000
   2  -1.2405E+06     3.7500E+06   5.6126E-01  3.3689E+00       0.000
   3   2.6571E+05     1.7500E+06   5.6126E-01  3.3689E+00       0.000
   4  -5.3576E+05     1.5000E+06   5.6126E-01  3.3689E+00       0.000
 --------------------------------------------------------------------------------



            CUMULATIVE HYDROLOGIC BUDGET SUMMARIES FOR SIMULATED LAKES
     (ALL FLUID FLUXES ARE SUMS OF VOLUMES ADDED TO THE LAKE SINCE INITIAL TIME)
     ---------------------------------------------------------------------------
 LAKE       PRECIP       EVAP       RUNOFF
   1     2.2292E+07  1.0379E+08  0.0000E+00
   2     1.5711E+07  7.0467E+07  0.0000E+00
   3     7.0910E+06  3.1396E+07  0.0000E+00
   4     6.4424E+06  3.0440E+07  0.0000E+00

            GROUND WATER            SURFACE WATER
 LAKE    INFLOW     OUTFLOW      INFLOW     OUTFLOW
   1  5.5542E+07  1.4875E+06  0.0000E+00  0.0000E+00
   2  1.0465E+08  3.5695E+06  0.0000E+00  0.0000E+00
   3  1.9226E+07  1.1649E+06  0.0000E+00  0.0000E+00
   4  5.6624E+07  5.1597E+05  0.0000E+00  0.0000E+00

         WATER    CONNECTED LAKE   CHANGE       PERCENT
 LAKE     USE         INFLUX       IN VOL.    DISCREPANCY
   1   0.0000E+00   5.0182E+07   2.2741E+07      0.000
   2   0.0000E+00  -3.3688E+07   1.2633E+07      0.000
   3   0.0000E+00   1.2140E+07   5.8956E+06      0.000
   4   0.0000E+00  -2.7057E+07   5.0534E+06      0.000
 --------------------------------------------------------------------------------


   1 CONNECTED LAKE SET

   4 LAKES:    1  2  3  4
 
 SOLVING FOR HEAD 
    20 ITERATIONS FOR TIME STEP  49 IN STRESS PERIOD    2

 HEAD/DRAWDOWN PRINTOUT FLAG = 0     TOTAL BUDGET PRINTOUT FLAG = 0
 CELL-BY-CELL FLOW TERM FLAG = 1

 OUTPUT FLAGS FOR ALL LAYERS ARE THE SAME:
   HEAD    DRAWDOWN  HEAD  DRAWDOWN
 PRINTOUT  PRINTOUT  SAVE    SAVE
 ----------------------------------
     0         0       0       0

 --------------------------------------------------------------------------------
 TIME STEP  49     NUMBER OF CONNECTED LAKES IS  4     TOTAL AREA =  0.137500000D+08



           SURFACE       SILL   WATER BUDGET  STAGE  CORRECTED   LAKE VOLUME
  LAKE       AREA      ELEVATION   STAGE   CORRECTION  STAGE     CORRECTION
 --------------------------------------------------------------------------------

   1     0.67500E+07 -99999.00    118.72      0.23    118.94    0.15288E+07
 --------------------------------------------------------------------------------

   2     0.37500E+07    112.00    119.28     -0.34    118.94   -0.12666E+07
 --------------------------------------------------------------------------------

   3     0.17500E+07    110.00    118.79      0.15    118.94    0.27006E+06
 --------------------------------------------------------------------------------

   4     0.15000E+07    108.00    119.30     -0.35    118.94   -0.53219E+06


     0  LAKE CELLS ARE DRY.

 PERIOD     2     TIME STEP    49     TIME STEP LENGTH  1.4654E+01
 PERIOD TIME  3.8491E+02     TOTAL SIMULATION TIME  7.8491E+02


                 HYDROLOGIC BUDGET SUMMARIES FOR SIMULATED LAKES
     (ALL FLUID FLUXES ARE VOLUMES ADDED TO THE LAKE DURING PRESENT TIME STEP)
     -------------------------------------------------------------------------
 LAKE    STAGE         VOLUME     VOL.CHANGE      PRECIP     EVAPORATION        RUNOFF
   1   118.9418     1.0811E+08    3.8670E+06    1.1474E+06    1.0188E+06    0.0000E+00
   2   118.9418     5.4781E+07    2.1482E+06    6.3744E+05    5.6600E+05    0.0000E+00
   3   118.9418     3.0898E+07    1.0025E+06    2.9747E+05    2.6413E+05    0.0000E+00
   4   118.9418     2.7913E+07    8.5931E+05    2.5498E+05    2.2640E+05    0.0000E+00

            GROUND WATER            SURFACE WATER        WATER
 LAKE    INFLOW     OUTFLOW      INFLOW     OUTFLOW       USE
   1  2.2096E+06  0.0000E+00  0.0000E+00  0.0000E+00  0.0000E+00
   2  3.3518E+06  8.4073E+03  0.0000E+00  0.0000E+00  0.0000E+00
   3  6.9915E+05  1.9428E+01  0.0000E+00  0.0000E+00  0.0000E+00
   4  1.3643E+06  1.4091E+03  0.0000E+00  0.0000E+00  0.0000E+00

      CONNECTED LAKE   TIME-STEP         STAGE-CHANGE          PERCENT
 LAKE    INFLUX      SURFACE AREA   TIME STEP  CUMULATIVE    DISCREPANCY
   1   1.5288E+06     6.7500E+06   5.7287E-01  3.9418E+00       0.000
   2  -1.2666E+06     3.7500E+06   5.7287E-01  3.9418E+00       0.000
   3   2.7006E+05     1.7500E+06   5.7287E-01  3.9418E+00       0.000
   4  -5.3219E+05     1.5000E+06   5.7287E-01  3.9418E+00       0.000
 --------------------------------------------------------------------------------



            CUMULATIVE HYDROLOGIC BUDGET SUMMARIES FOR SIMULATED LAKES
     (ALL FLUID FLUXES ARE SUMS OF VOLUMES ADDED TO THE LAKE SINCE INITIAL TIME)
     ---------------------------------------------------------------------------
 LAKE       PRECIP       EVAP       RUNOFF
   1     2.3440E+07  1.0481E+08  0.0000E+00
   2     1.6348E+07  7.1033E+07  0.0000E+00
   3     7.3885E+06  3.1660E+07  0.0000E+00
   4     6.6974E+06  3.0667E+07  0.0000E+00

            GROUND WATER            SURFACE WATER
 LAKE    INFLOW     OUTFLOW      INFLOW     OUTFLOW
   1  5.7751E+07  1.4875E+06  0.0000E+00  0.0000E+00
   2  1.0800E+08  3.5779E+06  0.0000E+00  0.0000E+00
   3  1.9925E+07  1.1649E+06  0.0000E+00  0.0000E+00
   4  5.7988E+07  5.1738E+05  0.0000E+00  0.0000E+00

         WATER    CONNECTED LAKE   CHANGE       PERCENT
 LAKE     USE         INFLUX       IN VOL.    DISCREPANCY
   1   0.0000E+00   5.1710E+07   2.6608E+07      0.000
   2   0.0000E+00  -3.4954E+07   1.4781E+07      0.000
   3   0.0000E+00   1.2410E+07   6.8982E+06      0.000
   4   0.0000E+00  -2.7589E+07   5.9127E+06      0.000
 --------------------------------------------------------------------------------


   1 CONNECTED LAKE SET

   4 LAKES:    1  2  3  4
 
 SOLVING FOR HEAD 
    22 ITERATIONS FOR TIME STEP  50 IN STRESS PERIOD    2

 MAXIMUM HEAD CHANGE FOR EACH ITERATION:

    HEAD CHANGE   HEAD CHANGE   HEAD CHANGE   HEAD CHANGE   HEAD CHANGE
  LAYER,ROW,COL LAYER,ROW,COL LAYER,ROW,COL LAYER,ROW,COL LAYER,ROW,COL
 ----------------------------------------------------------------------
     0.2560        0.1716        0.1320        0.6104E-01    0.7465E-01
  (  1,  8, 17) (  5,  7, 14) (  5, 10,  6) (  2,  8,  7) (  3, 10, 10)
     0.3275E-01    0.2152E-01    0.1121E-01    0.1324E-01    0.5435E-02
  (  3,  8, 15) (  5,  9, 15) (  3,  8,  7) (  3,  9, 15) (  2,  8,  7)
     0.6224E-02    0.3243E-02    0.2968E-02    0.1133E-02    0.1550E-02
  (  3,  9, 16) (  3,  8, 16) (  5,  9, 15) (  2,  8,  7) (  3,  9, 15)
     0.7241E-03    0.4748E-03    0.2399E-03    0.2862E-03    0.1064E-03
  (  3,  8, 15) (  5,  9, 15) (  3,  8, 16) (  3,  9, 15) (  2,  8,  7)
     0.1378E-03    0.7079E-04
  (  3,  9, 16) (  3,  8, 16)


 HEAD/DRAWDOWN PRINTOUT FLAG = 1     TOTAL BUDGET PRINTOUT FLAG = 1
 CELL-BY-CELL FLOW TERM FLAG = 1

 OUTPUT FLAGS FOR EACH LAYER:
          HEAD    DRAWDOWN  HEAD  DRAWDOWN
 LAYER  PRINTOUT  PRINTOUT  SAVE    SAVE
 -----------------------------------------
    1       0         0       0       0
    2       0         0       0       0
    3       0         0       0       0
    4       0         0       0       0
    5       1         0       0       0

 --------------------------------------------------------------------------------
 TIME STEP  50     NUMBER OF CONNECTED LAKES IS  4     TOTAL AREA =  0.137500000D+08



           SURFACE       SILL   WATER BUDGET  STAGE  CORRECTED   LAKE VOLUME
  LAKE       AREA      ELEVATION   STAGE   CORRECTION  STAGE     CORRECTION
 --------------------------------------------------------------------------------

   1     0.67500E+07 -99999.00    119.30      0.23    119.53    0.15466E+07
 --------------------------------------------------------------------------------

   2     0.37500E+07    112.00    119.87     -0.34    119.53   -0.12929E+07
 --------------------------------------------------------------------------------

   3     0.17500E+07    110.00    119.37      0.16    119.53    0.27399E+06
 --------------------------------------------------------------------------------

   4     0.15000E+07    108.00    119.88     -0.35    119.53   -0.52771E+06


     0  LAKE CELLS ARE DRY.

 PERIOD     2     TIME STEP    50     TIME STEP LENGTH  1.5093E+01
 PERIOD TIME  4.0000E+02     TOTAL SIMULATION TIME  8.0000E+02


                 HYDROLOGIC BUDGET SUMMARIES FOR SIMULATED LAKES
     (ALL FLUID FLUXES ARE VOLUMES ADDED TO THE LAKE DURING PRESENT TIME STEP)
     -------------------------------------------------------------------------
 LAKE    STAGE         VOLUME     VOL.CHANGE      PRECIP     EVAPORATION        RUNOFF
   1   119.5261     1.1205E+08    3.9437E+06    1.1818E+06    1.0494E+06    0.0000E+00
   2   119.5260     5.6972E+07    2.1908E+06    6.5656E+05    5.8298E+05    0.0000E+00
   3   119.5261     3.1920E+07    1.0224E+06    3.0640E+05    2.7206E+05    0.0000E+00
   4   119.5260     2.8789E+07    8.7636E+05    2.6262E+05    2.3319E+05    0.0000E+00

            GROUND WATER            SURFACE WATER        WATER
 LAKE    INFLOW     OUTFLOW      INFLOW     OUTFLOW       USE
   1  2.2647E+06  0.0000E+00  0.0000E+00  0.0000E+00  0.0000E+00
   2  3.4194E+06  9.2893E+03  0.0000E+00  0.0000E+00  0.0000E+00
   3  7.1412E+05  3.0821E+01  0.0000E+00  0.0000E+00  0.0000E+00
   4  1.3761E+06  1.4599E+03  0.0000E+00  0.0000E+00  0.0000E+00

      CONNECTED LAKE   TIME-STEP         STAGE-CHANGE          PERCENT
 LAKE    INFLUX      SURFACE AREA   TIME STEP  CUMULATIVE    DISCREPANCY
   1   1.5466E+06     6.7500E+06   5.8424E-01  4.5261E+00       0.000
   2  -1.2929E+06     3.7500E+06   5.8424E-01  4.5260E+00       0.000
   3   2.7399E+05     1.7500E+06   5.8424E-01  4.5261E+00       0.000
   4  -5.2771E+05     1.5000E+06   5.8424E-01  4.5260E+00       0.000
 --------------------------------------------------------------------------------



            CUMULATIVE HYDROLOGIC BUDGET SUMMARIES FOR SIMULATED LAKES
     (ALL FLUID FLUXES ARE SUMS OF VOLUMES ADDED TO THE LAKE SINCE INITIAL TIME)
     ---------------------------------------------------------------------------
 LAKE       PRECIP       EVAP       RUNOFF
   1     2.4621E+07  1.0586E+08  0.0000E+00
   2     1.7005E+07  7.1616E+07  0.0000E+00
   3     7.6948E+06  3.1932E+07  0.0000E+00
   4     6.9600E+06  3.0900E+07  0.0000E+00

            GROUND WATER            SURFACE WATER
 LAKE    INFLOW     OUTFLOW      INFLOW     OUTFLOW
   1  6.0016E+07  1.4875E+06  0.0000E+00  0.0000E+00
   2  1.1142E+08  3.5872E+06  0.0000E+00  0.0000E+00
   3  2.0639E+07  1.1650E+06  0.0000E+00  0.0000E+00
   4  5.9365E+07  5.1884E+05  0.0000E+00  0.0000E+00

         WATER    CONNECTED LAKE   CHANGE       PERCENT
 LAKE     USE         INFLUX       IN VOL.    DISCREPANCY
   1   0.0000E+00   5.3257E+07   3.0552E+07      0.000
   2   0.0000E+00  -3.6247E+07   1.6972E+07      0.000
   3   0.0000E+00   1.2684E+07   7.9206E+06      0.000
   4   0.0000E+00  -2.8117E+07   6.7891E+06      0.000
 --------------------------------------------------------------------------------


   1 CONNECTED LAKE SET

   4 LAKES:    1  2  3  4
1
              HEAD IN LAYER   5 AT END OF TIME STEP  50 IN STRESS PERIOD    2
  ---------------------------------------------------------------------------

          1      2      3      4      5      6      7      8      9     10
 .........................................................................
   1   160.0  158.9  157.3  155.8  154.6  153.9  153.1  152.3  151.5  150.8
   2   160.0  158.4  156.3  154.4  153.1  152.2  151.3  150.5  149.7  148.9
   3   160.0  157.9  155.2  152.6  150.9  149.8  148.8  147.9  147.0  146.2
   4   160.0  157.5  154.0  150.7  148.4  147.1  145.9  144.8  143.9  143.1
   5   160.0  157.0  152.5  147.8  144.5  142.7  141.2  140.1  139.1  138.3
   6   160.0  156.4  150.5  143.1  136.3  133.6  132.1  131.2  130.2  129.6
   7   160.0  156.0  149.1  138.1  120.9  120.3  120.3  121.9  119.7  119.6
   8   160.0  155.9  148.5  136.4  120.4  119.9  119.9  119.7  119.3  119.3
   9   160.0  155.8  148.3  135.9  120.4  119.9  119.9  119.4  119.3  119.3
  10   160.0  155.9  148.5  136.4  120.4  119.9  119.9  119.7  119.3  119.3
  11   160.0  156.0  149.1  138.1  120.9  120.3  120.3  121.9  119.7  119.6
  12   160.0  156.4  150.5  143.1  136.3  133.6  132.1  131.2  130.2  129.6
  13   160.0  157.0  152.5  147.8  144.5  142.7  141.2  140.1  139.1  138.3
  14   160.0  157.5  154.0  150.7  148.4  147.1  145.9  144.8  143.9  143.1
  15   160.0  157.9  155.2  152.6  150.9  149.8  148.8  147.9  147.0  146.2
  16   160.0  158.4  156.3  154.4  153.1  152.2  151.3  150.5  149.7  148.9
  17   160.0  158.9  157.3  155.8  154.6  153.9  153.1  152.3  151.5  150.8
1
              HEAD IN LAYER   5 AT END OF TIME STEP  50 IN STRESS PERIOD    2
  ---------------------------------------------------------------------------

         11     12     13     14     15     16     17     18     19     20
 .........................................................................
   1   150.0  149.2  148.5  147.7  146.9  146.1  145.4  144.6  143.9  142.7
   2   148.1  147.3  146.6  145.9  145.2  144.5  143.8  143.1  142.5  141.5
   3   145.4  144.7  144.0  143.4  142.8  142.3  141.8  141.3  140.9  140.3
   4   142.3  141.7  141.2  140.7  140.3  140.0  139.7  139.4  139.3  139.2
   5   137.7  137.3  137.0  136.9  136.8  136.8  136.8  136.9  137.2  137.7
   6   129.3  129.3  129.6  130.5  131.2  131.7  132.2  132.7  133.6  135.5
   7   119.6  119.6  119.8  123.4  124.6  125.2  126.0  126.5  127.8  132.9
   8   119.3  119.3  119.3  120.0  119.6  119.6  121.0  120.1  120.4  131.1
   9   119.3  119.3  119.3  119.4  119.4  119.4  119.5  119.9  120.2  130.6
  10   119.3  119.3  119.4  120.1  119.6  119.7  121.0  120.2  120.6  131.1
  11   119.6  119.6  119.8  123.4  124.6  125.3  126.1  126.5  127.8  132.9
  12   129.3  129.3  129.6  130.5  131.2  131.7  132.2  132.8  133.6  135.5
  13   137.7  137.3  137.0  136.9  136.8  136.8  136.8  136.9  137.2  137.7
  14   142.3  141.7  141.2  140.7  140.3  140.0  139.7  139.4  139.3  139.2
  15   145.4  144.7  144.0  143.4  142.8  142.3  141.8  141.3  140.9  140.3
  16   148.1  147.3  146.6  145.9  145.2  144.5  143.8  143.1  142.5  141.5
  17   150.0  149.2  148.5  147.7  146.9  146.1  145.4  144.6  143.9  142.7
1
              HEAD IN LAYER   5 AT END OF TIME STEP  50 IN STRESS PERIOD    2
  ---------------------------------------------------------------------------

         21     22
 .................
   1   141.1  140.0
   2   140.4  140.0
   3   139.9  140.0
   4   139.4  140.0
   5   138.9  140.0
   6   138.1  140.0
   7   137.5  140.0
   8   137.1  140.0
   9   137.0  140.0
  10   137.1  140.0
  11   137.5  140.0
  12   138.1  140.0
  13   138.9  140.0
  14   139.4  140.0
  15   139.9  140.0
  16   140.4  140.0
  17   141.1  140.0
1
  VOLUMETRIC BUDGET FOR ENTIRE MODEL AT END OF TIME STEP 50 IN STRESS PERIOD   2
  ------------------------------------------------------------------------------

     CUMULATIVE VOLUMES      L**3       RATES FOR THIS TIME STEP      L**3/T
     ------------------                 ------------------------

           IN:                                      IN:
           ---                                      ---
             STORAGE =    20821182.0000               STORAGE =           0.0000
       CONSTANT HEAD =  1012452736.0000         CONSTANT HEAD =      342444.6250
                  ET =           0.0000                    ET =           0.0000
            RECHARGE =   668809664.0000              RECHARGE =     1653000.0000
     SPECIFIED FLOWS =           0.0000       SPECIFIED FLOWS =           0.0000
       LAKE  SEEPAGE =     6758503.5000         LAKE  SEEPAGE =         714.2216

            TOTAL IN =  1708842112.0000              TOTAL IN =     1996158.8750

          OUT:                                     OUT:
          ----                                     ----
             STORAGE =   821345216.0000               STORAGE =      295177.2188
       CONSTANT HEAD =      579847.6250         CONSTANT HEAD =        3128.3733
                  ET =   635479232.0000                    ET =     1182752.7500
            RECHARGE =           0.0000              RECHARGE =           0.0000
     SPECIFIED FLOWS =           0.0000       SPECIFIED FLOWS =           0.0000
       LAKE  SEEPAGE =   251437152.0000         LAKE  SEEPAGE =      515079.9062

           TOTAL OUT =  1708841472.0000             TOTAL OUT =     1996138.2500

            IN - OUT =         640.0000              IN - OUT =          20.6250

 PERCENT DISCREPANCY =           0.00     PERCENT DISCREPANCY =           0.00






          TIME SUMMARY AT END OF TIME STEP  50 IN STRESS PERIOD    2
                    SECONDS     MINUTES      HOURS       DAYS        YEARS
                    -----------------------------------------------------------
   TIME STEP LENGTH 1.30407E+06  21734.      362.24      15.093     4.13234E-02
 STRESS PERIOD TIME 3.45600E+07 5.76000E+05  9600.0      400.00      1.0951    
         TOTAL TIME 6.91200E+07 1.15200E+06  19200.      800.00      2.1903    
1
