 LISTING FILE: str.lst
                         UNIT   6

 OPENING ../data/str.bas
 FILE TYPE:BAS   UNIT   5

 OPENING ../data/str.bcf
 FILE TYPE:BCF   UNIT   7

 OPENING ../data/str.sip
 FILE TYPE:SIP   UNIT  13

 OPENING ../data/str.oc
 FILE TYPE:OC   UNIT  14

 OPENING ../data/str.str
 FILE TYPE:STR   UNIT  15
1                                 MODFLOW
      U.S. GEOLOGICAL SURVEY MODULAR FINITE-DIFFERENCE GROUND-WATER FLOW MODEL

 EXAMPLE SIMULATION OF STREAM ROUTING PACKAGE -- STEADY STATE OCTOBER 21, 1987   
 -- STREAM STAGE IS CALCULATED                                                   
    1 LAYERS         6 ROWS         6 COLUMNS
   1 STRESS PERIOD(S) IN SIMULATION
 MODEL TIME UNIT IS SECONDS

 BAS5 -- BASIC MODEL PACKAGE, VERSION 5, 1/1/95 INPUT READ FROM UNIT  5
 ARRAYS RHS AND BUFF WILL SHARE MEMORY
 INITIAL HEAD WILL BE KEPT THROUGHOUT THE SIMULATION
        340 ELEMENTS IN X ARRAY ARE USED BY BAS
        340 ELEMENTS OF X ARRAY USED OUT OF    1500000

 BCF5 -- BLOCK-CENTERED FLOW PACKAGE, VERSION 5, 9/1/93 INPUT READ FROM UNIT  7
 STEADY-STATE SIMULATION
 HEAD AT CELLS THAT CONVERT TO DRY=  0.10000E+31
 WETTING CAPABILITY IS NOT ACTIVE
      LAYER  LAYER-TYPE CODE     INTERBLOCK T
      --------------------------------------------
         1            0          0 -- HARMONIC    
          1 ELEMENTS IN X ARRAY ARE USED BY BCF
        341 ELEMENTS OF X ARRAY USED OUT OF    1500000

 SIP5 -- STRONGLY IMPLICIT PROCEDURE SOLUTION PACKAGE
                    VERSION 5, 9/1/93 INPUT READ FROM UNIT 13
 MAXIMUM OF 150 ITERATIONS ALLOWED FOR CLOSURE
  5 ITERATION PARAMETERS
        749 ELEMENTS IN X ARRAY ARE USED BY SIP
       1090 ELEMENTS OF X ARRAY USED OUT OF    1500000
0STRM -- STREAM PACKAGE, VERSION 2, 12/18/90 INPUT READ FROM UNIT 15
 MAXIMUM OF   23 STREAM NODES

 NUMBER OF STREAM SEGMENTS IS     7

 NUMBER OF STREAM TRIBUTARIES IS     3


 DIVERSIONS FROM STREAMS HAVE BEEN SPECIFIED
 STREAM STAGES WILL BE CALCULATED USING A CONSTANT OF      1.4860
      410 ELEMENTS IN X ARRAY ARE USED FOR STREAMS
     1500 ELEMENTS OF X ARRAY USED OUT OF1500000
1
 EXAMPLE SIMULATION OF STREAM ROUTING PACKAGE -- STEADY STATE OCTOBER 21, 1987   
 -- STREAM STAGE IS CALCULATED                                                   

           BOUNDARY ARRAY =              1 FOR LAYER   1

 AQUIFER HEAD WILL BE SET TO  999.00     AT ALL NO-FLOW NODES (IBOUND=0).



                       INITIAL HEAD FOR LAYER   1
 READING ON UNIT   5 WITH FORMAT:  (6F8.0)            

            1           2           3           4           5           6
 ........................................................................
   1    480.0       480.0       480.0       480.0       480.0       480.0    
   2    480.0       480.0       480.0       480.0       480.0       480.0    
   3    480.0       480.0       480.0       480.0       480.0       480.0    
   4    480.0       480.0       480.0       480.0       480.0       480.0    
   5    480.0       480.0       480.0       480.0       480.0       480.0    
   6    480.0       480.0       480.0       480.0       480.0       480.0    

 OUTPUT CONTROL IS SPECIFIED EVERY TIME STEP
 HEAD PRINT FORMAT CODE IS   5    DRAWDOWN PRINT FORMAT CODE IS   5
 HEADS WILL BE SAVED ON UNIT   0    DRAWDOWNS WILL BE SAVED ON UNIT   0

 COLUMN TO ROW ANISOTROPY =   1.000000    

                     DELR =   1000.000    

                     DELC =   1000.000    

     TRANSMIS. ALONG ROWS =  0.8000000E-01 FOR LAYER   1



          SOLUTION BY THE STRONGLY IMPLICIT PROCEDURE
          -------------------------------------------
 MAXIMUM ITERATIONS ALLOWED FOR CLOSURE =      150
                 ACCELERATION PARAMETER =     1.0000    
      HEAD CHANGE CRITERION FOR CLOSURE =    0.10000E-03
      SIP HEAD CHANGE PRINTOUT INTERVAL =      999

     CALCULATE ITERATION PARAMETERS FROM MODEL CALCULATED WSEED
1
                            STRESS PERIOD NO.   1, LENGTH =   1296000.    
                            ----------------------------------------------

                              NUMBER OF TIME STEPS =     3

                               MULTIPLIER FOR DELT =     1.500

                            INITIAL TIME STEP SIZE =   272842.1    
0

    23 STREAM NODES
    LAYER   ROW    COL    SEGMENT   REACH   STREAMFLOW      STREAM    STREAMBED     STREAMBED BOT  STREAMBED TOP
                           NUMBER   NUMBER                   STAGE   CONDUCTANCE      ELEVATION      ELEVATION
   --------------------------------------------------------------------------------------------------------------
       1      1      3        1        1         4.500       495.0      1.200            490.0        492.0    
       1      2      3        1        2            0.       490.0     0.6000            485.0        487.0    
       1      2      3        2        1         1.500       487.0     0.2000            483.0        485.0    
       1      3      3        2        2            0.       486.0     0.4000            482.0        484.0    
       1      4      3        2        3            0.       484.0     0.4000            480.0        482.0    
       1      5      3        2        4            0.       480.0     0.2000            476.0        478.0    
       1      2      3        3        1        -1.000       486.0     0.4000            481.0        483.0    
       1      3      4        3        2            0.       482.0      1.200            477.0        479.0    
       1      4      4        3        3            0.       478.0      1.200            473.0        475.0    
       1      5      4        3        4            0.       475.0     0.6000            470.0        472.0    
       1      4      1        4        1        0.8000       492.0     0.4000            489.0        490.0    
       1      4      2        4        2            0.       488.0     0.3200            485.0        486.0    
       1      5      2        4        3            0.       483.0     0.3200            480.0        481.0    
       1      5      3        4        4            0.       480.0     0.2000            477.0        478.0    
       1      5      3        5        1        -1.000       478.0     0.2000            475.0        476.0    
       1      5      4        5        2            0.       474.0     0.2000            471.0        472.0    
       1      2      6        6        1         1.200       495.0     0.8000            491.0        493.0    
       1      3      6        6        2            0.       490.0     0.8000            486.0        488.0    
       1      4      5        6        3            0.       480.0     0.8000            476.0        478.0    
       1      5      5        6        4            0.       477.0     0.6000            473.0        475.0    
       1      5      4        6        5            0.       474.0     0.2000            470.0        472.0    
       1      5      4        7        1        -1.000       472.0     0.6000            467.0        469.0    
       1      6      4        7        2            0.       469.0      1.200            464.0        466.0    
0   LAYER   ROW    COL    SEGMENT   REACH        STREAM             STREAM          ROUGH
                           NUMBER   NUMBER        WIDTH              SLOPE          COEF.
   --------------------------------------------------------------------------------------------------------------
       1      1      3        1        1          10.00           0.7000E-02      0.3000E-01
       1      2      3        1        2          10.00           0.7000E-02      0.3000E-01
       1      2      3        2        1          5.000           0.2000E-02      0.2200E-01
       1      3      3        2        2          5.000           0.2000E-02      0.2200E-01
       1      4      3        2        3          5.000           0.2000E-02      0.2200E-01
       1      5      3        2        4          5.000           0.4000E-02      0.2200E-01
       1      2      3        3        1          10.00           0.5000E-02      0.3000E-01
       1      3      4        3        2          10.00           0.5000E-02      0.3000E-01
       1      4      4        3        3          10.00           0.5000E-02      0.3000E-01
       1      5      4        3        4          10.00           0.5000E-02      0.3000E-01
       1      4      1        4        1          5.000           0.4000E-02      0.2200E-01
       1      4      2        4        2          5.000           0.4000E-02      0.2200E-01
       1      5      2        4        3          5.000           0.4000E-02      0.2200E-01
       1      5      3        4        4          5.000           0.4000E-02      0.2200E-01
       1      5      3        5        1          5.000           0.5000E-02      0.2200E-01
       1      5      4        5        2          5.000           0.5000E-02      0.2200E-01
       1      2      6        6        1          5.000           0.5000E-02      0.2200E-01
       1      3      6        6        2          5.000           0.8000E-02      0.2200E-01
       1      4      5        6        3          5.000           0.7000E-02      0.2200E-01
       1      5      5        6        4          5.000           0.4000E-02      0.2200E-01
       1      5      4        6        5          5.000           0.3000E-02      0.2200E-01
       1      5      4        7        1          10.00           0.4000E-02      0.3000E-01
       1      6      4        7        2          10.00           0.4000E-02      0.3000E-01
0                              MAXIMUM NUMBER OF TRIBUTARY STREAMS IS     3

                     STREAM SEGMENT               TRIBUTARY STREAM SEGMENT NUMBERS
                        1                        0    0    0
                        2                        0    0    0
                        3                        1    0    0
                        4                        0    0    0
                        5                        2    4    0
                        6                        0    0    0
                        7                        3    5    6
0          DIVERSION SEGMENT NUMBER          UPSTREAM SEGMENT NUMBER
                        1                                0
                        2                                1
                        3                                0
                        4                                0
                        5                                0
                        6                                0
                        7                                0

 AVERAGE SEED = 0.06853892
 MINIMUM SEED = 0.06853892

     5 ITERATION PARAMETERS CALCULATED FROM AVERAGE SEED:

  0.000000E+00 0.488337E+00 0.738201E+00 0.866047E+00 0.931461E+00

    21 ITERATIONS FOR TIME STEP   1 IN STRESS PERIOD  1

 HEAD/DRAWDOWN PRINTOUT FLAG = 0     TOTAL BUDGET PRINTOUT FLAG = 0
 CELL-BY-CELL FLOW TERM FLAG = 0

 OUTPUT FLAGS FOR ALL LAYERS ARE THE SAME:
   HEAD    DRAWDOWN  HEAD  DRAWDOWN
 PRINTOUT  PRINTOUT  SAVE    SAVE
 ----------------------------------
     0         0       0       0
     1 ITERATIONS FOR TIME STEP   2 IN STRESS PERIOD  1

 HEAD/DRAWDOWN PRINTOUT FLAG = 0     TOTAL BUDGET PRINTOUT FLAG = 0
 CELL-BY-CELL FLOW TERM FLAG = 0

 OUTPUT FLAGS FOR ALL LAYERS ARE THE SAME:
   HEAD    DRAWDOWN  HEAD  DRAWDOWN
 PRINTOUT  PRINTOUT  SAVE    SAVE
 ----------------------------------
     0         0       0       0
     1 ITERATIONS FOR TIME STEP   3 IN STRESS PERIOD  1

 MAXIMUM HEAD CHANGE FOR EACH ITERATION:

    HEAD CHANGE   HEAD CHANGE   HEAD CHANGE   HEAD CHANGE   HEAD CHANGE
  LAYER,ROW,COL LAYER,ROW,COL LAYER,ROW,COL LAYER,ROW,COL LAYER,ROW,COL
 ----------------------------------------------------------------------
    -0.5869E-06
  (  1,  2,  5)


 HEAD/DRAWDOWN PRINTOUT FLAG = 1     TOTAL BUDGET PRINTOUT FLAG = 1
 CELL-BY-CELL FLOW TERM FLAG = 1

 OUTPUT FLAGS FOR ALL LAYERS ARE THE SAME:
   HEAD    DRAWDOWN  HEAD  DRAWDOWN
 PRINTOUT  PRINTOUT  SAVE    SAVE
 ----------------------------------
     1         0       0       0
0            LAYER      ROW     COLUMN     STREAM    REACH      FLOW INTO    FLOW INTO      FLOW OUT OF     HEAD IN
                                           NUMBER   NUMBER    STREAM REACH    AQUIFER      STREAM REACH     STREAM


               1         1         3         1         1         4.50         0.931            3.57           492.25
               1         2         3         1         2         3.57         0.841            1.23           487.18
               1         2         3         2         1         1.50         -.105            1.60           485.26
               1         3         3         2         2         1.60         0.222            1.38           484.25
               1         4         3         2         3         1.38         0.357            1.03           482.22
               1         5         3         2         4         1.03         0.221           0.805           478.15
               1         2         3         3         1         1.23         -1.05            2.27           483.17
               1         3         4         3         2         2.27         -.663            2.94           479.21
               1         4         4         3         3         2.94         -.612            3.55           475.24
               1         5         4         3         4         3.55         0.455            3.09           472.24
               1         4         1         4         1        0.800         0.446           0.354           490.11
               1         4         2         4         2        0.354         0.339           0.157E-01       486.06
               1         5         2         4         3        0.157E-01     0.157E-01          0.           481.01
               1         5         3         4         4           0.            0.              0.           478.00
               1         5         3         5         1        0.805         -.182           0.987           476.14
               1         5         4         5         2        0.987         0.131           0.855           472.14
               1         2         6         6         1         1.20          1.01           0.187           493.12
               1         3         6         6         2        0.187         0.187              0.           488.03
               1         4         5         6         3           0.         -.586E-01       0.586E-01       478.02
               1         5         5         6         4        0.586E-01     0.586E-01          0.           475.02
               1         5         4         6         5           0.            0.              0.           472.00
               1         5         4         7         1         3.95         -1.30            5.25           469.32
               1         6         4         7         2         5.25         -1.25            6.50           466.37
1
              HEAD IN LAYER  1 AT END OF TIME STEP  3 IN STRESS PERIOD  1
  -----------------------------------------------------------------------

           1       2       3       4       5       6
 ...................................................
   1  487.639 488.554 491.471 488.439 488.579 490.216
   2  486.725 486.551 485.779 485.266 487.082 491.854
   3  485.985 485.144 483.696 479.763 482.630 485.602
   4  486.087 484.345 481.326 475.750 478.073 479.983
   5  482.357 480.593 477.047 471.485 474.662 476.275
   6  480.392 478.426 474.294 467.409 472.083 474.179
1
  VOLUMETRIC BUDGET FOR ENTIRE MODEL AT END OF TIME STEP  3 IN STRESS PERIOD  1
  -----------------------------------------------------------------------------

     CUMULATIVE VOLUMES      L**3       RATES FOR THIS TIME STEP      L**3/T
     ------------------                 ------------------------

           IN:                                      IN:
           ---                                      ---
       CONSTANT HEAD =           0.0000         CONSTANT HEAD =           0.0000
      STREAM LEAKAGE =     6761585.0000        STREAM LEAKAGE =           5.2173

            TOTAL IN =     6761585.0000              TOTAL IN =           5.2173

          OUT:                                     OUT:
          ----                                     ----
       CONSTANT HEAD =           0.0000         CONSTANT HEAD =           0.0000
      STREAM LEAKAGE =     6761475.0000        STREAM LEAKAGE =           5.2172

           TOTAL OUT =     6761475.0000             TOTAL OUT =           5.2172

            IN - OUT =         110.0000              IN - OUT =       8.4877E-05

 PERCENT DISCREPANCY =           0.00     PERCENT DISCREPANCY =           0.00






          TIME SUMMARY AT END OF TIME STEP  3 IN STRESS PERIOD  1
                    SECONDS     MINUTES      HOURS       DAYS        YEARS
                    -----------------------------------------------------------
   TIME STEP LENGTH 6.13895E+05  10232.      170.53      7.1053     1.94531E-02
 STRESS PERIOD TIME 1.29600E+06  21600.      360.00      15.000     4.10678E-02
         TOTAL TIME 1.29600E+06  21600.      360.00      15.000     4.10678E-02
1
