                                  MODFLOW-2000
      U.S. GEOLOGICAL SURVEY MODULAR FINITE-DIFFERENCE GROUND-WATER FLOW MODEL
                           VERSION 1.18.00 08/23/2007


 This model run produced both GLOBAL and LIST files.  This is the LIST file.


 THIS FILE CONTAINS OUTPUT UNIQUE TO FINAL PARAMETER VALUES
   --REGRESSION HAS CONVERGED
 SENSITIVITIES ARE CALCULATED USING PREVIOUS SET OF PARAMETER VALUES

 CURRENT VALUES OF PARAMETERS LISTED IN THE SEN FILE:

 PARAMETER   PARAMETER   PARAMETER    FOOT-
    NAME        TYPE       VALUE      NOTE
 ----------  ---------  ------------  -----
 HK_1           HK       0.99997        *
 HK_2           HK       1.00001E-02    *
 HK_3           HK       1.00002E-04    *
 HK_4           HK       1.00023E-06    *
 ANIV_12        VANI      4.0001        *
 ANIV_3         VANI      1.0001        *
 RCHRAT         RCH      3.10003E-04    *
 ETMAX          EVT      3.99963E-04    *
 C_GHB          GHB       1.0000        *
 C_DRN          DRN       1.0000        *
 ------------------------------------------
 * INDICATES VALUE ADJUSTABLE BY PARAMETER-
   ESTIMATION PROCESS


 REWOUND tc2.lst
 FILE TYPE:LIST   UNIT   12

 REWOUND tc2.bin
 FILE TYPE:DATA(BINARY)   UNIT   13

 REWOUND ../data/tc2.obs
 FILE TYPE:OBS   UNIT   21

 REWOUND ../data/tc2.ohd
 FILE TYPE:HOB   UNIT   22

 REWOUND ../data/tc2.odr
 FILE TYPE:DROB   UNIT   23

 REWOUND ../data/tc2.ogb
 FILE TYPE:GBOB   UNIT   24

 REWOUND ../data/tc2.dis
 FILE TYPE:DIS   UNIT   31

 REWOUND ../data/tc2.zon
 FILE TYPE:ZONE   UNIT   32

 REWOUND ../data/tc2.bas
 FILE TYPE:BAS6   UNIT   41

 REWOUND ../data/tc2.wel
 FILE TYPE:WEL   UNIT   43

 REWOUND ../data/tc2.drn
 FILE TYPE:DRN   UNIT   44

 REWOUND ../data/tc2.evt
 FILE TYPE:EVT   UNIT   45

 REWOUND ../data/tc2.ghb
 FILE TYPE:GHB   UNIT   46

 REWOUND ../data/tc2.rch
 FILE TYPE:RCH   UNIT   47

 REWOUND ../data/tc2.oc
 FILE TYPE:OC   UNIT   48
 
 # MODFLOW-2000 SIMULATION OF DEATH VALLEY TEST CASE 1                           
 # test case ymptc                                                               
 THE FREE FORMAT OPTION HAS BEEN SELECTED
    3 LAYERS        18 ROWS        18 COLUMNS
    1 STRESS PERIOD(S) IN SIMULATION

 BAS6 -- BASIC PACKAGE, VERSION 6, 1/11/2000 INPUT READ FROM UNIT   41
         15 ELEMENTS IN IR ARRAY ARE USED BY BAS

 WEL6 -- WELL PACKAGE, VERSION 6, 1/11/2000 INPUT READ FROM UNIT   43
 # WEL file for test case tc2
 #
 No named parameters
 MAXIMUM OF      3 ACTIVE WELLS AT ONE TIME
         12 ELEMENTS IN RX ARRAY ARE USED BY WEL

 DRN6 -- DRAIN PACKAGE, VERSION 6, 1/11/2000 INPUT READ FROM UNIT   44
 # DRN file for test case tc2
 #
     1 Named Parameters         5 List entries
 MAXIMUM OF      5 ACTIVE DRAINS AT ONE TIME
         50 ELEMENTS IN RX ARRAY ARE USED BY DRN

 EVT6 -- EVAPOTRANSPIRATION PACKAGE, VERSION 6, 12/14/2000
         INPUT READ FROM UNIT   45
 # EVT file for test case tc2
 #
     1 Named Parameters     
 OPTION 1 -- EVAPOTRANSPIRATION FROM TOP LAYER
        972 ELEMENTS IN RX ARRAY ARE USED BY EVT
        324 ELEMENTS IN IR ARRAY ARE USED BY EVT

 GHB6 -- GHB PACKAGE, VERSION 6, 1/11/2000 INPUT READ FROM UNIT   46
 # GHB file for test case tc2
 #
     1 Named Parameters         5 List entries
 MAXIMUM OF      5 ACTIVE GHB CELLS AT ONE TIME
         50 ELEMENTS IN RX ARRAY ARE USED BY GHB

 RCH6 -- RECHARGE PACKAGE, VERSION 6, 1/11/2000 INPUT READ FROM UNIT   47
 # RCH file for test case tc2
 #
     1 Named Parameters     
 OPTION 1 -- RECHARGE TO TOP LAYER
        324 ELEMENTS IN RX ARRAY ARE USED BY RCH
        324 ELEMENTS IN IR ARRAY ARE USED BY RCH

       1408  ELEMENTS OF RX ARRAY USED OUT OF       1408
          0  ELEMENTS OF RZ ARRAY USED OUT OF          1
        663  ELEMENTS OF IR ARRAY USED OUT OF        663
1
 # MODFLOW-2000 SIMULATION OF DEATH VALLEY TEST CASE 1                           
 # test case ymptc                                                               



                     BOUNDARY ARRAY FOR LAYER   1
 READING ON UNIT   41 WITH FORMAT: (18I3)              



                     BOUNDARY ARRAY FOR LAYER   2
 READING ON UNIT   41 WITH FORMAT: (18I3)              



                     BOUNDARY ARRAY FOR LAYER   3
 READING ON UNIT   41 WITH FORMAT: (18I3)              

 AQUIFER HEAD WILL BE SET TO  9999.0     AT ALL NO-FLOW NODES (IBOUND=0).



                       INITIAL HEAD FOR LAYER   1
 READING ON UNIT   41 WITH FORMAT: (18F10.2)           

            1           2           3           4           5           6
            7           8           9          10          11          12
           13          14          15          16          17          18
 ........................................................................
   1    0.000       466.7       970.9       979.2       979.5       980.1    
        1025.       1124.       1184.       1186.       1187.       9999.    
        9999.       9999.       9999.       9999.       9999.       9999.    
   2    0.000       460.5       968.8       979.0       979.2       979.8    
        1015.       1103.       1171.       1186.       1187.       1189.    
        9999.       9999.       9999.       9999.       9999.       9999.    
   3    0.000       433.0       961.2       973.6       978.5       957.7    
        987.5       1089.       1180.       1187.       1187.       1190.    
        1192.       9999.       9999.       9999.       9999.       9999.    
   4    0.000       291.7       752.5       967.2       971.5       964.3    
        990.4       1083.       1177.       1177.       1160.       1192.    
        1194.       1195.       9999.       9999.       9999.       9999.    
   5    0.000       220.9       552.0       799.2       897.5       929.4    
        956.1       983.7       1078.       1148.       1154.       1194.    
        1195.       1196.       1197.       9999.       9999.       9999.    
   6    0.000       188.8       463.0       692.6       852.1       892.6    
        932.8       906.9       1008.       1148.       1201.       1196.    
        1196.       1198.       1198.       1198.       9999.       9999.    
   7    27.65       189.7       420.5       653.2       857.1       922.1    
        1015.       951.2       1024.       1184.       1260.       1242.    
        1215.       1201.       1200.       1199.       1197.       9999.    
   8    50.33       210.0       431.3       642.5       850.8       944.4    
        1014.       953.3       1037.       1233.       1337.       1346.    
        1257.       1205.       1204.       1201.       1197.       1100.    
   9    67.18       233.9       445.0       634.7       835.3       925.8    
        971.0       931.5       1050.       1276.       1407.       1450.    
        1357.       1210.       1209.       1205.       1177.       1100.    
  10    77.44       262.6       462.4       635.4       812.4       951.3    
        990.3       999.7       1108.       1286.       1395.       1453.    
        1425.       1277.       1214.       1202.       1159.       1100.    
  11    207.6       336.4       484.5       641.0       809.6       926.6    
        996.2       1046.       1130.       1312.       1441.       1457.    
        1448.       1316.       1217.       1205.       1157.       1100.    
  12    9999.       9999.       9999.       9999.       871.6       949.9    
        1018.       1063.       1037.       1312.       1460.       1460.    
        1479.       1376.       1285.       1218.       1165.       1100.    
  13    9999.       9999.       9999.       9999.       9999.       1000.    
        1063.       1124.       1185.       1337.       1483.       1514.    
        1515.       1419.       1315.       1229.       1182.       1154.    
  14    9999.       9999.       9999.       9999.       9999.       9999.    
        1118.       1183.       1225.       1283.       1375.       1405.    
        1388.       1333.       1276.       1216.       1193.       1178.    
  15    9999.       9999.       9999.       9999.       9999.       9999.    
        9999.       1239.       1241.       1243.       1283.       1304.    
        1287.       1219.       1241.       1207.       1193.       1189.    
  16    9999.       9999.       9999.       9999.       9999.       9999.    
        9999.       9999.       1242.       1242.       1256.       1263.    
        1249.       1206.       1216.       1197.       1193.       1192.    
  17    9999.       9999.       9999.       9999.       9999.       9999.    
        9999.       9999.       9999.       1242.       1247.       1247.    
        1239.       1221.       1209.       1196.       1194.       1194.    
  18    9999.       9999.       9999.       9999.       9999.       9999.    
        9999.       9999.       9999.       9999.       1245.       1242.    
        1235.       1223.       1208.       1195.       1195.       1194.    



                       INITIAL HEAD FOR LAYER   2
 READING ON UNIT   41 WITH FORMAT: (18F10.2)           

            1           2           3           4           5           6
            7           8           9          10          11          12
           13          14          15          16          17          18
 ........................................................................
   1    0.000       466.7       970.9       979.2       979.5       980.1    
        1025.       1124.       1184.       1186.       1187.       9999.    
        9999.       9999.       9999.       9999.       9999.       9999.    
   2    0.000       460.5       968.8       979.0       979.2       979.8    
        1015.       1103.       1171.       1186.       1187.       1189.    
        9999.       9999.       9999.       9999.       9999.       9999.    
   3    0.000       433.0       961.2       973.6       978.5       957.7    
        987.5       1089.       1180.       1187.       1187.       1190.    
        1192.       9999.       9999.       9999.       9999.       9999.    
   4    0.000       291.7       752.5       967.2       971.5       964.3    
        990.4       1083.       1177.       1177.       1160.       1192.    
        1194.       1195.       9999.       9999.       9999.       9999.    
   5    0.000       220.9       552.0       799.2       897.5       929.4    
        956.1       983.7       1078.       1148.       1154.       1194.    
        1195.       1196.       1197.       9999.       9999.       9999.    
   6    0.000       188.8       463.0       692.6       852.1       892.6    
        932.8       906.9       1008.       1148.       1201.       1196.    
        1196.       1198.       1198.       1198.       9999.       9999.    
   7    27.65       189.7       420.5       653.2       857.1       922.1    
        1015.       951.2       1024.       1184.       1260.       1242.    
        1215.       1201.       1200.       1199.       1197.       9999.    
   8    50.33       210.0       431.3       642.5       850.8       944.4    
        1014.       953.3       1037.       1233.       1337.       1346.    
        1257.       1205.       1204.       1201.       1197.       1100.    
   9    67.18       233.9       445.0       634.7       835.3       925.8    
        971.0       931.5       1050.       1276.       1407.       1450.    
        1357.       1210.       1209.       1205.       1177.       1100.    
  10    77.44       262.6       462.4       635.4       812.4       951.3    
        990.3       999.7       1108.       1286.       1395.       1453.    
        1425.       1277.       1214.       1202.       1159.       1100.    
  11    207.6       336.4       484.5       641.0       809.6       926.6    
        996.2       1046.       1130.       1312.       1441.       1457.    
        1448.       1316.       1217.       1205.       1157.       1100.    
  12    9999.       9999.       9999.       9999.       871.6       949.9    
        1018.       1063.       1037.       1312.       1460.       1460.    
        1479.       1376.       1285.       1218.       1165.       1100.    
  13    9999.       9999.       9999.       9999.       9999.       1000.    
        1063.       1124.       1185.       1337.       1483.       1514.    
        1515.       1419.       1315.       1229.       1182.       1154.    
  14    9999.       9999.       9999.       9999.       9999.       9999.    
        1118.       1183.       1225.       1283.       1375.       1405.    
        1388.       1333.       1276.       1216.       1193.       1178.    
  15    9999.       9999.       9999.       9999.       9999.       9999.    
        9999.       1239.       1241.       1243.       1283.       1304.    
        1287.       1219.       1241.       1207.       1193.       1189.    
  16    9999.       9999.       9999.       9999.       9999.       9999.    
        9999.       9999.       1242.       1242.       1256.       1263.    
        1249.       1206.       1216.       1197.       1193.       1192.    
  17    9999.       9999.       9999.       9999.       9999.       9999.    
        9999.       9999.       9999.       1242.       1247.       1247.    
        1239.       1221.       1209.       1196.       1194.       1194.    
  18    9999.       9999.       9999.       9999.       9999.       9999.    
        9999.       9999.       9999.       9999.       1245.       1242.    
        1235.       1223.       1208.       1195.       1195.       1194.    



                       INITIAL HEAD FOR LAYER   3
 READING ON UNIT   41 WITH FORMAT: (18F10.2)           

            1           2           3           4           5           6
            7           8           9          10          11          12
           13          14          15          16          17          18
 ........................................................................
   1    0.000       466.7       970.9       979.2       979.5       980.1    
        1025.       1124.       1184.       1186.       1187.       9999.    
        9999.       9999.       9999.       9999.       9999.       9999.    
   2    0.000       460.5       968.8       979.0       979.2       979.8    
        1015.       1103.       1171.       1186.       1187.       1189.    
        9999.       9999.       9999.       9999.       9999.       9999.    
   3    0.000       433.0       961.2       973.6       978.5       957.7    
        987.5       1089.       1180.       1187.       1187.       1190.    
        1192.       9999.       9999.       9999.       9999.       9999.    
   4    0.000       291.7       752.5       967.2       971.5       964.3    
        990.4       1083.       1177.       1177.       1160.       1192.    
        1194.       1195.       9999.       9999.       9999.       9999.    
   5    0.000       220.9       552.0       799.2       897.5       929.4    
        956.1       983.7       1078.       1148.       1154.       1194.    
        1195.       1196.       1197.       9999.       9999.       9999.    
   6    0.000       188.8       463.0       692.6       852.1       892.6    
        932.8       906.9       1008.       1148.       1201.       1196.    
        1196.       1198.       1198.       1198.       9999.       9999.    
   7    27.65       189.7       420.5       653.2       857.1       922.1    
        1015.       951.2       1024.       1184.       1260.       1242.    
        1215.       1201.       1200.       1199.       1197.       9999.    
   8    50.33       210.0       431.3       642.5       850.8       944.4    
        1014.       953.3       1037.       1233.       1337.       1346.    
        1257.       1205.       1204.       1201.       1197.       1100.    
   9    67.18       233.9       445.0       634.7       835.3       925.8    
        971.0       931.5       1050.       1276.       1407.       1450.    
        1357.       1210.       1209.       1205.       1177.       1100.    
  10    77.44       262.6       462.4       635.4       812.4       951.3    
        990.3       999.7       1108.       1286.       1395.       1453.    
        1425.       1277.       1214.       1202.       1159.       1100.    
  11    207.6       336.4       484.5       641.0       809.6       926.6    
        996.2       1046.       1130.       1312.       1441.       1457.    
        1448.       1316.       1217.       1205.       1157.       1100.    
  12    9999.       9999.       9999.       9999.       871.6       949.9    
        1018.       1063.       1037.       1312.       1460.       1460.    
        1479.       1376.       1285.       1218.       1165.       1100.    
  13    9999.       9999.       9999.       9999.       9999.       1000.    
        1063.       1124.       1185.       1337.       1483.       1514.    
        1515.       1419.       1315.       1229.       1182.       1154.    
  14    9999.       9999.       9999.       9999.       9999.       9999.    
        1118.       1183.       1225.       1283.       1375.       1405.    
        1388.       1333.       1276.       1216.       1193.       1178.    
  15    9999.       9999.       9999.       9999.       9999.       9999.    
        9999.       1239.       1241.       1243.       1283.       1304.    
        1287.       1219.       1241.       1207.       1193.       1189.    
  16    9999.       9999.       9999.       9999.       9999.       9999.    
        9999.       9999.       1242.       1242.       1256.       1263.    
        1249.       1206.       1216.       1197.       1193.       1192.    
  17    9999.       9999.       9999.       9999.       9999.       9999.    
        9999.       9999.       9999.       1242.       1247.       1247.    
        1239.       1221.       1209.       1196.       1194.       1194.    
  18    9999.       9999.       9999.       9999.       9999.       9999.    
        9999.       9999.       9999.       9999.       1245.       1242.    
        1235.       1223.       1208.       1195.       1195.       1194.    

 OUTPUT CONTROL IS SPECIFIED ONLY AT TIME STEPS FOR WHICH OUTPUT IS DESIRED
 HEAD PRINT FORMAT CODE IS  20    DRAWDOWN PRINT FORMAT CODE IS   0
 HEADS WILL BE SAVED ON UNIT   13    DRAWDOWNS WILL BE SAVED ON UNIT    0

    HYD. COND. ALONG ROWS is defined by the following parameters:
 HK_1      
 HK_2      
 HK_3      


              HYD. COND. ALONG ROWS FOR LAYER   1

            1           2           3           4           5           6
            7           8           9          10          11          12
           13          14          15          16          17          18
 ........................................................................
   1   1.0000E-02  1.0000E-04  1.0000E-02   1.000       1.000       1.000    
       1.0000E-02  1.0000E-02   1.000       1.000       1.000       0.000    
        0.000       0.000       0.000       0.000       0.000       0.000    
   2   1.0000E-02  1.0000E-04  1.0000E-02   1.000       1.000       1.000    
       1.0000E-02  1.0000E-02  1.0000E-02   1.000       1.000       1.000    
        0.000       0.000       0.000       0.000       0.000       0.000    
   3   1.0000E-02  1.0000E-04  1.0000E-02  1.0000E-02   1.000      1.0000E-02
       1.0000E-02  1.0000E-04  1.0000E-02   1.000       1.000       1.000    
        1.000       0.000       0.000       0.000       0.000       0.000    
   4   1.0000E-02  1.0000E-04  1.0000E-04  1.0000E-02  1.0000E-02  1.0000E-02
       1.0000E-04  1.0000E-04  1.0000E-02  1.0000E-02  1.0000E-02   1.000    
        1.000       1.000       0.000       0.000       0.000       0.000    
   5   1.0000E-02  1.0000E-04  1.0000E-04  1.0000E-04  1.0000E-04  1.0000E-04
       1.0000E-04  1.0000E-04  1.0000E-04  1.0000E-04  1.0000E-02   1.000    
        1.000       1.000       1.000       0.000       0.000       0.000    
   6   1.0000E-02  1.0000E-04  1.0000E-04  1.0000E-04  1.0000E-04  1.0000E-02
       1.0000E-02  1.0000E-02  1.0000E-04  1.0000E-04  1.0000E-02   1.000    
        1.000       1.000       1.000       1.000       0.000       0.000    
   7   1.0000E-02  1.0000E-04  1.0000E-04  1.0000E-04  1.0000E-04  1.0000E-02
        1.000      1.0000E-02  1.0000E-04  1.0000E-04  1.0000E-02  1.0000E-02
       1.0000E-02   1.000       1.000       1.000       1.000       0.000    
   8   1.0000E-02  1.0000E-04  1.0000E-04  1.0000E-04  1.0000E-04  1.0000E-02
        1.000      1.0000E-02  1.0000E-04  1.0000E-04  1.0000E-02  1.0000E-02
       1.0000E-02   1.000       1.000       1.000       1.000      1.0000E-02
   9   1.0000E-02  1.0000E-04  1.0000E-04  1.0000E-04  1.0000E-04  1.0000E-02
       1.0000E-02  1.0000E-02  1.0000E-04  1.0000E-04  1.0000E-02   1.000    
       1.0000E-02   1.000       1.000       1.000      1.0000E-02  1.0000E-02
  10   1.0000E-02  1.0000E-04  1.0000E-04  1.0000E-04  1.0000E-04  1.0000E-04
       1.0000E-04  1.0000E-04  1.0000E-04  1.0000E-04  1.0000E-02   1.000    
       1.0000E-02  1.0000E-02   1.000      1.0000E-02  1.0000E-02  1.0000E-02
  11   1.0000E-04  1.0000E-04  1.0000E-04  1.0000E-04  1.0000E-04  1.0000E-04
       1.0000E-04  1.0000E-04  1.0000E-04  1.0000E-04  1.0000E-02   1.000    
       1.0000E-02  1.0000E-02   1.000      1.0000E-02  1.0000E-02  1.0000E-02
  12    0.000       0.000       0.000       0.000      1.0000E-04  1.0000E-04
       1.0000E-04  1.0000E-04  1.0000E-04  1.0000E-04  1.0000E-02   1.000    
       1.0000E-02  1.0000E-02  1.0000E-02  1.0000E-02  1.0000E-02  1.0000E-02
  13    0.000       0.000       0.000       0.000       0.000      1.0000E-04
       1.0000E-04  1.0000E-04  1.0000E-04  1.0000E-04  1.0000E-02  1.0000E-02
       1.0000E-02  1.0000E-02  1.0000E-02  1.0000E-02  1.0000E-02   1.000    
  14    0.000       0.000       0.000       0.000       0.000       0.000    
       1.0000E-04  1.0000E-04  1.0000E-04  1.0000E-04  1.0000E-04  1.0000E-04
       1.0000E-04  1.0000E-02  1.0000E-02  1.0000E-02   1.000      1.0000E-02
  15    0.000       0.000       0.000       0.000       0.000       0.000    
        0.000      1.0000E-02  1.0000E-02  1.0000E-02  1.0000E-04  1.0000E-04
       1.0000E-04  1.0000E-04  1.0000E-02  1.0000E-02   1.000      1.0000E-02
  16    0.000       0.000       0.000       0.000       0.000       0.000    
        0.000       0.000       1.000      1.0000E-02  1.0000E-04  1.0000E-04
       1.0000E-04  1.0000E-04  1.0000E-04  1.0000E-02   1.000      1.0000E-02
  17    0.000       0.000       0.000       0.000       0.000       0.000    
        0.000       0.000       0.000      1.0000E-02  1.0000E-04  1.0000E-04
       1.0000E-04  1.0000E-04  1.0000E-04  1.0000E-02  1.0000E-02  1.0000E-02
  18    0.000       0.000       0.000       0.000       0.000       0.000    
        0.000       0.000       0.000       0.000      1.0000E-04  1.0000E-04
       1.0000E-04  1.0000E-04  1.0000E-04  1.0000E-02  1.0000E-02  1.0000E-02

  HORIZ. TO VERTICAL ANI. is defined by the following parameters:
 ANIV_12   

  HORIZ. TO VERTICAL ANI. =   4.00007     FOR LAYER   1

    HYD. COND. ALONG ROWS is defined by the following parameters:
 HK_1      
 HK_2      
 HK_3      
 HK_4      


              HYD. COND. ALONG ROWS FOR LAYER   2

            1           2           3           4           5           6
            7           8           9          10          11          12
           13          14          15          16          17          18
 ........................................................................
   1   1.0000E-04  1.0000E-04  1.0000E-04  1.0000E-04  1.0000E-04  1.0000E-04
       1.0000E-04  1.0000E-04  1.0000E-04  1.0000E-04  1.0000E-04   0.000    
        0.000       0.000       0.000       0.000       0.000       0.000    
   2   1.0000E-04  1.0000E-04  1.0000E-04  1.0000E-04  1.0000E-04  1.0000E-04
       1.0000E-04  1.0002E-06  1.0002E-06  1.0002E-06  1.0000E-04  1.0000E-04
        0.000       0.000       0.000       0.000       0.000       0.000    
   3   1.0000E-04  1.0000E-04  1.0000E-04  1.0000E-04  1.0000E-04  1.0000E-04
       1.0000E-04  1.0002E-06  1.0002E-06  1.0002E-06  1.0000E-04  1.0000E-04
       1.0000E-04   0.000       0.000       0.000       0.000       0.000    
   4   1.0000E-04  1.0000E-04  1.0000E-04  1.0000E-04  1.0000E-04  1.0000E-04
       1.0002E-06  1.0002E-06  1.0002E-06  1.0002E-06  1.0002E-06  1.0002E-06
       1.0000E-04  1.0000E-04   0.000       0.000       0.000       0.000    
   5   1.0000E-04  1.0000E-04  1.0000E-04  1.0000E-04  1.0000E-04  1.0000E-04
       1.0000E-04  1.0000E-04  1.0000E-04  1.0002E-06  1.0002E-06  1.0002E-06
       1.0000E-04  1.0000E-04  1.0000E-04   0.000       0.000       0.000    
   6   1.0000E-04  1.0000E-04  1.0000E-04  1.0000E-04  1.0000E-04  1.0000E-02
       1.0000E-02  1.0000E-02  1.0000E-04  1.0002E-06  1.0002E-06  1.0002E-06
       1.0000E-04  1.0000E-04  1.0000E-02  1.0000E-02   0.000       0.000    
   7   1.0000E-04  1.0000E-04  1.0000E-04  1.0002E-06  1.0000E-04  1.0000E-02
        1.000      1.0000E-02  1.0000E-04  1.0002E-06  1.0002E-06  1.0000E-04
       1.0000E-04  1.0000E-02  1.0000E-02  1.0000E-02  1.0000E-02   0.000    
   8   1.0000E-04  1.0000E-04  1.0000E-04  1.0000E-04  1.0000E-04  1.0000E-02
        1.000      1.0000E-02  1.0000E-04  1.0002E-06  1.0002E-06  1.0000E-04
       1.0000E-02  1.0000E-02  1.0000E-02  1.0000E-02  1.0000E-02  1.0000E-04
   9   1.0000E-04  1.0000E-04  1.0000E-04  1.0000E-04  1.0000E-04  1.0000E-02
        1.000      1.0000E-02  1.0000E-04  1.0002E-06  1.0002E-06  1.0000E-04
       1.0000E-04  1.0000E-02   1.000      1.0000E-02  1.0000E-04  1.0000E-04
  10   1.0000E-04  1.0000E-04  1.0000E-04  1.0000E-04  1.0000E-04  1.0000E-02
       1.0000E-02  1.0000E-02  1.0000E-04  1.0000E-04  1.0000E-04  1.0000E-04
       1.0000E-04  1.0000E-02   1.000      1.0000E-02  1.0000E-04  1.0000E-04
  11   1.0000E-04  1.0000E-04  1.0000E-04  1.0000E-04  1.0000E-04  1.0000E-04
       1.0000E-04  1.0000E-04  1.0000E-04  1.0000E-04  1.0000E-04  1.0000E-04
       1.0000E-04  1.0000E-02   1.000      1.0000E-02  1.0000E-04  1.0000E-02
  12    0.000       0.000       0.000       0.000      1.0000E-04  1.0000E-04
       1.0000E-04  1.0000E-04  1.0000E-04  1.0000E-04  1.0000E-04  1.0000E-04
       1.0000E-04  1.0000E-02  1.0000E-02  1.0000E-02  1.0000E-02  1.0000E-02
  13    0.000       0.000       0.000       0.000       0.000      1.0000E-04
       1.0000E-04  1.0000E-04  1.0000E-04  1.0000E-04  1.0000E-04  1.0000E-04
       1.0000E-04  1.0000E-04  1.0000E-02  1.0000E-02  1.0000E-02  1.0000E-02
  14    0.000       0.000       0.000       0.000       0.000       0.000    
       1.0000E-04  1.0000E-04  1.0000E-04  1.0000E-04  1.0000E-04  1.0000E-04
       1.0000E-04  1.0000E-04  1.0000E-04  1.0000E-02   1.000      1.0000E-02
  15    0.000       0.000       0.000       0.000       0.000       0.000    
        0.000      1.0000E-04  1.0000E-04  1.0000E-04  1.0000E-04  1.0000E-04
       1.0000E-04  1.0000E-04  1.0000E-04  1.0000E-02  1.0000E-02  1.0000E-02
  16    0.000       0.000       0.000       0.000       0.000       0.000    
        0.000       0.000      1.0000E-04  1.0000E-04  1.0000E-04  1.0000E-04
       1.0000E-04  1.0000E-04  1.0000E-04  1.0000E-04  1.0000E-04  1.0000E-04
  17    0.000       0.000       0.000       0.000       0.000       0.000    
        0.000       0.000       0.000      1.0000E-04  1.0000E-04  1.0000E-04
       1.0000E-04  1.0000E-04  1.0000E-04  1.0000E-04  1.0000E-04  1.0000E-02
  18    0.000       0.000       0.000       0.000       0.000       0.000    
        0.000       0.000       0.000       0.000      1.0000E-04  1.0000E-04
       1.0000E-04  1.0000E-04  1.0000E-04  1.0000E-04  1.0000E-04  1.0000E-02

  HORIZ. TO VERTICAL ANI. is defined by the following parameters:
 ANIV_12   

  HORIZ. TO VERTICAL ANI. =   4.00007     FOR LAYER   2

    HYD. COND. ALONG ROWS is defined by the following parameters:
 HK_1      
 HK_3      
 HK_4      


              HYD. COND. ALONG ROWS FOR LAYER   3

            1           2           3           4           5           6
            7           8           9          10          11          12
           13          14          15          16          17          18
 ........................................................................
   1   1.0000E-04  1.0002E-06  1.0002E-06  1.0000E-04  1.0000E-04  1.0000E-04
       1.0000E-04  1.0000E-04  1.0000E-04  1.0000E-04  1.0000E-04   0.000    
        0.000       0.000       0.000       0.000       0.000       0.000    
   2   1.0000E-04  1.0002E-06  1.0002E-06  1.0002E-06  1.0000E-04  1.0000E-04
       1.0000E-04  1.0002E-06  1.0002E-06  1.0002E-06  1.0000E-04  1.0000E-04
        0.000       0.000       0.000       0.000       0.000       0.000    
   3   1.0000E-04  1.0002E-06  1.0002E-06  1.0002E-06  1.0002E-06  1.0000E-04
       1.0002E-06  1.0002E-06  1.0002E-06  1.0002E-06  1.0002E-06  1.0000E-04
       1.0000E-04   0.000       0.000       0.000       0.000       0.000    
   4   1.0000E-04  1.0002E-06  1.0002E-06  1.0002E-06  1.0002E-06  1.0002E-06
       1.0002E-06  1.0002E-06  1.0002E-06  1.0002E-06  1.0002E-06  1.0002E-06
       1.0000E-04  1.0000E-04   0.000       0.000       0.000       0.000    
   5   1.0000E-04  1.0002E-06  1.0002E-06  1.0002E-06  1.0002E-06  1.0002E-06
       1.0002E-06  1.0002E-06  1.0002E-06  1.0002E-06  1.0002E-06  1.0002E-06
       1.0002E-06  1.0000E-04  1.0000E-04   0.000       0.000       0.000    
   6   1.0000E-04  1.0002E-06  1.0002E-06  1.0002E-06  1.0002E-06  1.0002E-06
       1.0002E-06  1.0002E-06  1.0002E-06  1.0002E-06  1.0002E-06  1.0002E-06
       1.0002E-06  1.0002E-06  1.0002E-06  1.0002E-06   0.000       0.000    
   7   1.0000E-04  1.0002E-06  1.0002E-06  1.0002E-06  1.0002E-06  1.0002E-06
        1.000       1.000       1.000       1.000       1.000       1.000    
        1.000       1.000       1.000       1.000       1.000       0.000    
   8   1.0000E-04  1.0000E-04  1.0002E-06  1.0002E-06  1.0002E-06  1.0002E-06
        1.000      1.0000E-04  1.0000E-04  1.0000E-04  1.0002E-06  1.0002E-06
       1.0002E-06  1.0002E-06  1.0002E-06  1.0002E-06   1.000       1.000    
   9   1.0000E-04  1.0000E-04  1.0000E-04  1.0000E-04  1.0002E-06  1.0002E-06
       1.0002E-06  1.0002E-06  1.0002E-06  1.0000E-04  1.0000E-04  1.0000E-04
       1.0000E-04  1.0000E-04  1.0000E-04  1.0000E-04  1.0000E-04  1.0000E-04
  10   1.0000E-04  1.0000E-04  1.0000E-04  1.0000E-04  1.0000E-04  1.0002E-06
       1.0002E-06  1.0002E-06  1.0002E-06  1.0002E-06  1.0002E-06  1.0002E-06
       1.0000E-04  1.0000E-04  1.0000E-04  1.0000E-04  1.0000E-04  1.0000E-04
  11   1.0000E-04  1.0000E-04  1.0000E-04  1.0000E-04  1.0000E-04  1.0000E-04
       1.0002E-06  1.0002E-06  1.0002E-06  1.0000E-04  1.0000E-04  1.0000E-04
       1.0000E-04  1.0000E-04  1.0000E-04  1.0000E-04  1.0000E-04  1.0000E-04
  12    0.000       0.000       0.000       0.000      1.0000E-04  1.0000E-04
       1.0002E-06  1.0002E-06  1.0002E-06  1.0002E-06  1.0000E-04  1.0000E-04
       1.0000E-04  1.0000E-04  1.0000E-04  1.0002E-06  1.0000E-04  1.0000E-04
  13    0.000       0.000       0.000       0.000       0.000      1.0000E-04
       1.0000E-04  1.0002E-06  1.0002E-06  1.0002E-06  1.0002E-06  1.0002E-06
       1.0002E-06  1.0002E-06  1.0002E-06  1.0002E-06  1.0002E-06  1.0002E-06
  14    0.000       0.000       0.000       0.000       0.000       0.000    
       1.0000E-04  1.0000E-04  1.0002E-06  1.0002E-06  1.0002E-06  1.0002E-06
       1.0002E-06  1.0002E-06  1.0002E-06  1.0002E-06  1.0002E-06  1.0002E-06
  15    0.000       0.000       0.000       0.000       0.000       0.000    
        0.000      1.0000E-04  1.0000E-04  1.0000E-04  1.0000E-04  1.0000E-04
       1.0000E-04  1.0000E-04  1.0000E-04  1.0000E-04  1.0000E-04  1.0000E-04
  16    0.000       0.000       0.000       0.000       0.000       0.000    
        0.000       0.000      1.0000E-04  1.0000E-04  1.0000E-04  1.0000E-04
       1.0000E-04  1.0000E-04  1.0000E-04  1.0000E-04  1.0000E-04  1.0000E-04
  17    0.000       0.000       0.000       0.000       0.000       0.000    
        0.000       0.000       0.000      1.0000E-04  1.0000E-04  1.0000E-04
       1.0000E-04  1.0000E-04  1.0000E-04  1.0000E-04  1.0000E-04  1.0000E-04
  18    0.000       0.000       0.000       0.000       0.000       0.000    
        0.000       0.000       0.000       0.000      1.0000E-04  1.0000E-04
       1.0000E-04  1.0000E-04  1.0000E-04  1.0000E-04  1.0000E-04  1.0000E-04

  HORIZ. TO VERTICAL ANI. is defined by the following parameters:
 ANIV_3    

  HORIZ. TO VERTICAL ANI. =   1.00012     FOR LAYER   3
1
                            STRESS PERIOD NO.    1, LENGTH =   86400.00    
                            -----------------------------------------------

                              NUMBER OF TIME STEPS =     1

                               MULTIPLIER FOR DELT =     1.000

                            INITIAL TIME STEP SIZE =   86400.00    

 WELL NO.  LAYER   ROW   COL   STRESS RATE         
 --------------------------------------------------
      1      1      9      7      -100.0    
      2      1      8     16      -200.0    
      3      1     11     13      -150.0    

      3 WELLS

 Parameter:  C_DRN
 DRAIN NO.  LAYER   ROW   COL     DRAIN EL.  CONDUCTANCE         
 ----------------------------------------------------------------
      1      1      7      6       400.0           1.000    
      2      1     10     11       550.0           1.000    
      3      1     14     14       1200.           1.000    
      4      1     15     14       1200.           1.000    
      5      1     16     14       1200.           1.000    

      5 DRAINS

               ET SURFACE =   1000.00    



 EVTR array defined by the following parameters:
 Parameter:  ETMAX


            EVAPOTRANSPIRATION RATE

            1           2           3           4           5           6
            7           8           9          10          11          12
           13          14          15          16          17          18
 ........................................................................
   1    0.000       0.000       0.000       0.000       0.000       0.000    
        0.000       0.000       0.000       0.000       0.000       0.000    
        0.000       0.000       0.000       0.000       0.000       0.000    
   2    0.000       0.000       0.000       0.000       0.000       0.000    
        0.000       0.000       0.000       0.000       0.000       0.000    
        0.000       0.000       0.000       0.000       0.000       0.000    
   3    0.000       0.000       0.000       0.000       0.000       0.000    
        0.000       0.000       0.000       0.000       0.000       0.000    
        0.000       0.000       0.000       0.000       0.000       0.000    
   4    0.000       0.000       0.000       0.000       0.000       0.000    
        0.000       0.000       0.000       0.000       0.000       0.000    
        0.000       0.000       0.000       0.000       0.000       0.000    
   5    0.000       0.000       0.000       0.000       0.000       0.000    
        0.000       0.000       0.000       0.000       0.000       0.000    
        0.000       0.000       0.000       0.000       0.000       0.000    
   6    0.000       0.000       0.000       0.000       0.000      3.9996E-04
       3.9996E-04  3.9996E-04   0.000       0.000       0.000       0.000    
        0.000       0.000       0.000       0.000       0.000       0.000    
   7    0.000       0.000       0.000       0.000       0.000      3.9996E-04
       3.9996E-04  3.9996E-04   0.000       0.000       0.000       0.000    
        0.000       0.000       0.000       0.000       0.000       0.000    
   8    0.000       0.000       0.000       0.000       0.000      3.9996E-04
       3.9996E-04  3.9996E-04   0.000       0.000       0.000       0.000    
        0.000       0.000       0.000       0.000       0.000       0.000    
   9    0.000       0.000       0.000       0.000       0.000      3.9996E-04
       3.9996E-04  3.9996E-04   0.000       0.000       0.000       0.000    
        0.000       0.000       0.000       0.000       0.000       0.000    
  10    0.000       0.000       0.000       0.000       0.000       0.000    
        0.000       0.000       0.000       0.000       0.000       0.000    
        0.000       0.000       0.000       0.000       0.000       0.000    
  11    0.000       0.000       0.000       0.000       0.000       0.000    
        0.000       0.000       0.000       0.000       0.000       0.000    
        0.000       0.000       0.000       0.000       0.000       0.000    
  12    0.000       0.000       0.000       0.000       0.000       0.000    
        0.000       0.000       0.000       0.000       0.000       0.000    
        0.000       0.000       0.000       0.000       0.000       0.000    
  13    0.000       0.000       0.000       0.000       0.000       0.000    
        0.000       0.000       0.000       0.000       0.000       0.000    
        0.000       0.000       0.000       0.000       0.000       0.000    
  14    0.000       0.000       0.000       0.000       0.000       0.000    
        0.000       0.000       0.000       0.000       0.000       0.000    
        0.000       0.000       0.000       0.000       0.000       0.000    
  15    0.000       0.000       0.000       0.000       0.000       0.000    
        0.000       0.000       0.000       0.000       0.000       0.000    
        0.000       0.000       0.000       0.000       0.000       0.000    
  16    0.000       0.000       0.000       0.000       0.000       0.000    
        0.000       0.000       0.000       0.000       0.000       0.000    
        0.000       0.000       0.000       0.000       0.000       0.000    
  17    0.000       0.000       0.000       0.000       0.000       0.000    
        0.000       0.000       0.000       0.000       0.000       0.000    
        0.000       0.000       0.000       0.000       0.000       0.000    
  18    0.000       0.000       0.000       0.000       0.000       0.000    
        0.000       0.000       0.000       0.000       0.000       0.000    
        0.000       0.000       0.000       0.000       0.000       0.000    

         EXTINCTION DEPTH =   50.0000    

 Parameter:  C_GHB
 BOUND. NO. LAYER   ROW   COL     STAGE      CONDUCTANCE         
 ----------------------------------------------------------------
      1      1      3      6       350.0           1.000    
      2      1      3     11       500.0           1.000    
      3      1      4     11       500.0           1.000    
      4      1      5     11       500.0           1.000    
      5      1     12      9       1000.           1.000    

      5 GHB CELLS



 RECH array defined by the following parameters:
 Parameter:  RCHRAT


                           RECHARGE

            1           2           3           4           5           6
            7           8           9          10          11          12
           13          14          15          16          17          18
 ........................................................................
   1    0.000       0.000       0.000       0.000       0.000       0.000    
        0.000       0.000       0.000       0.000       0.000       0.000    
        0.000       0.000       0.000       0.000       0.000       0.000    
   2    0.000       0.000       0.000       0.000       0.000       0.000    
        0.000       0.000       0.000       0.000       0.000       0.000    
        0.000       0.000       0.000       0.000       0.000       0.000    
   3    0.000       0.000       0.000       0.000       0.000       0.000    
        0.000       0.000       0.000       0.000       0.000       0.000    
        0.000       0.000       0.000       0.000       0.000       0.000    
   4    0.000       0.000       0.000       0.000       0.000       0.000    
        0.000       0.000       0.000       0.000       0.000       0.000    
        0.000       0.000       0.000       0.000       0.000       0.000    
   5    0.000       0.000       0.000       0.000       0.000       0.000    
        0.000       0.000       0.000       0.000       0.000       0.000    
        0.000       0.000       0.000       0.000       0.000       0.000    
   6    0.000       0.000       0.000       0.000       0.000       0.000    
        0.000       0.000       0.000       0.000       0.000       0.000    
        0.000       0.000       0.000       0.000       0.000       0.000    
   7    0.000       0.000       0.000       0.000       0.000       0.000    
        0.000       0.000       0.000       0.000       0.000       0.000    
        0.000       0.000       0.000       0.000       0.000       0.000    
   8    0.000       0.000       0.000       0.000       0.000       0.000    
        0.000       0.000       0.000       0.000       0.000       0.000    
        0.000       0.000       0.000       0.000       0.000       0.000    
   9    0.000       0.000       0.000       0.000       0.000       0.000    
        0.000       0.000       0.000       0.000       0.000      3.1000E-04
       3.1000E-04  3.1000E-04   0.000       0.000       0.000       0.000    
  10    0.000       0.000       0.000       0.000       0.000       0.000    
        0.000       0.000       0.000       0.000       0.000      3.1000E-04
       3.1000E-04  3.1000E-04  3.1000E-04   0.000       0.000       0.000    
  11    0.000       0.000       0.000       0.000       0.000       0.000    
        0.000       0.000       0.000       0.000       0.000      3.1000E-04
       3.1000E-04  3.1000E-04  3.1000E-04   0.000       0.000       0.000    
  12    0.000       0.000       0.000       0.000       0.000       0.000    
        0.000       0.000       0.000       0.000       0.000      3.1000E-04
       3.1000E-04  3.1000E-04  3.1000E-04   0.000       0.000       0.000    
  13    0.000       0.000       0.000       0.000       0.000       0.000    
        0.000       0.000       0.000       0.000       0.000      3.1000E-04
       3.1000E-04  3.1000E-04  3.1000E-04   0.000       0.000       0.000    
  14    0.000       0.000       0.000       0.000       0.000       0.000    
        0.000       0.000       0.000       0.000       0.000       0.000    
        0.000       0.000       0.000       0.000       0.000       0.000    
  15    0.000       0.000       0.000       0.000       0.000       0.000    
        0.000       0.000       0.000       0.000       0.000       0.000    
        0.000       0.000       0.000       0.000       0.000       0.000    
  16    0.000       0.000       0.000       0.000       0.000       0.000    
        0.000       0.000       0.000       0.000       0.000       0.000    
        0.000       0.000       0.000       0.000       0.000       0.000    
  17    0.000       0.000       0.000       0.000       0.000       0.000    
        0.000       0.000       0.000       0.000       0.000       0.000    
        0.000       0.000       0.000       0.000       0.000       0.000    
  18    0.000       0.000       0.000       0.000       0.000       0.000    
        0.000       0.000       0.000       0.000       0.000       0.000    
        0.000       0.000       0.000       0.000       0.000       0.000    
 
 SOLVING FOR HEAD 

 OUTPUT CONTROL FOR STRESS PERIOD    1   TIME STEP   1
    PRINT HEAD FOR ALL LAYERS
    PRINT BUDGET
    SAVE HEAD FOR ALL LAYERS
1
              HEAD IN LAYER   1 AT END OF TIME STEP   1 IN STRESS PERIOD    1
  ---------------------------------------------------------------------------

            1           2           3           4           5           6
            7           8           9          10          11          12
           13          14          15          16          17          18
 ........................................................................
   1    0.000       468.8       975.3       983.6       983.9       984.5    
        1029.       1127.       1188.       1189.       1190.       9999.    
        9999.       9999.       9999.       9999.       9999.       9999.    
   2    0.000       462.7       973.2       983.4       983.6       984.2    
        1019.       1107.       1174.       1190.       1190.       1192.    
        9999.       9999.       9999.       9999.       9999.       9999.    
   3    0.000       435.2       965.7       978.1       983.0       962.1    
        991.8       1094.       1183.       1190.       1191.       1193.    
        1195.       9999.       9999.       9999.       9999.       9999.    
   4    0.000       294.1       757.7       972.0       976.3       969.4    
        1002.       1096.       1180.       1181.       1163.       1196.    
        1197.       1198.       9999.       9999.       9999.       9999.    
   5    0.000       224.4       561.0       812.7       919.4       966.1    
        994.5       1025.       1100.       1156.       1157.       1197.    
        1198.       1199.       1200.       9999.       9999.       9999.    
   6    0.000       193.5       475.7       716.3       897.2       968.4    
        984.4       972.9       1047.       1161.       1204.       1199.    
        1200.       1201.       1201.       1202.       9999.       9999.    
   7    28.50       195.5       434.3       678.5       897.3       973.4    
        1037.       989.7       1054.       1196.       1263.       1246.    
        1219.       1204.       1203.       1202.       1200.       9999.    
   8    51.88       216.7       446.0       666.3       885.8       986.1    
        1036.       989.4       1065.       1245.       1340.       1350.    
        1260.       1208.       1207.       1204.       1200.       1100.    
   9    69.24       241.3       459.6       657.3       870.4       977.1    
        999.3       979.0       1080.       1287.       1410.       1453.    
        1360.       1213.       1212.       1208.       1179.       1100.    
  10    79.80       270.6       476.6       655.4       838.9       983.6    
        1017.       1030.       1129.       1296.       1398.       1456.    
        1428.       1280.       1217.       1205.       1161.       1100.    
  11    213.8       346.4       498.7       659.4       831.4       950.2    
        1018.       1066.       1143.       1319.       1444.       1460.    
        1451.       1319.       1220.       1207.       1158.       1100.    
  12    9999.       9999.       9999.       9999.       891.8       969.2    
        1035.       1076.       1039.       1317.       1463.       1463.    
        1482.       1379.       1287.       1220.       1166.       1100.    
  13    9999.       9999.       9999.       9999.       9999.       1017.    
        1077.       1134.       1191.       1341.       1486.       1517.    
        1518.       1422.       1317.       1230.       1183.       1154.    
  14    9999.       9999.       9999.       9999.       9999.       9999.    
        1129.       1191.       1231.       1289.       1379.       1408.    
        1391.       1335.       1278.       1217.       1194.       1179.    
  15    9999.       9999.       9999.       9999.       9999.       9999.    
        9999.       1245.       1247.       1248.       1287.       1307.    
        1289.       1219.       1242.       1208.       1194.       1190.    
  16    9999.       9999.       9999.       9999.       9999.       9999.    
        9999.       9999.       1247.       1248.       1260.       1266.    
        1251.       1207.       1217.       1199.       1195.       1193.    
  17    9999.       9999.       9999.       9999.       9999.       9999.    
        9999.       9999.       9999.       1248.       1251.       1251.    
        1241.       1223.       1211.       1197.       1195.       1195.    
  18    9999.       9999.       9999.       9999.       9999.       9999.    
        9999.       9999.       9999.       9999.       1248.       1245.    
        1237.       1225.       1210.       1197.       1196.       1195.    
1
              HEAD IN LAYER   2 AT END OF TIME STEP   1 IN STRESS PERIOD    1
  ---------------------------------------------------------------------------

            1           2           3           4           5           6
            7           8           9          10          11          12
           13          14          15          16          17          18
 ........................................................................
   1    0.000       430.8       828.8       947.7       979.0       996.6    
        1035.       1105.       1155.       1173.       1182.       9999.    
        9999.       9999.       9999.       9999.       9999.       9999.    
   2    0.000       422.0       819.2       937.8       975.3       989.8    
        1013.       1080.       1146.       1174.       1187.       1189.    
        9999.       9999.       9999.       9999.       9999.       9999.    
   3    0.000       393.6       786.0       918.7       962.9       975.5    
        993.5       1063.       1137.       1170.       1189.       1191.    
        1194.       9999.       9999.       9999.       9999.       9999.    
   4    0.000       320.4       659.9       872.1       942.4       965.6    
        998.7       1055.       1112.       1149.       1168.       1188.    
        1195.       1196.       9999.       9999.       9999.       9999.    
   5    0.000       262.6       546.2       771.5       902.6       970.2    
        1000.       1017.       1053.       1115.       1151.       1181.    
        1195.       1194.       1194.       9999.       9999.       9999.    
   6    0.000       231.5       474.4       716.8       906.9       994.2    
        1011.       1002.       1030.       1105.       1156.       1175.    
        1190.       1184.       1188.       1187.       9999.       9999.    
   7    89.68       235.8       401.9       678.3       941.5       1011.    
        1040.       1026.       1042.       1113.       1171.       1182.    
        1175.       1156.       1161.       1159.       1151.       9999.    
   8    143.9       268.8       449.8       664.9       899.6       1016.    
        1039.       1021.       1045.       1144.       1247.       1283.    
        1235.       1204.       1199.       1188.       1156.       1100.    
   9    183.3       306.7       469.2       644.7       880.5       1015.    
        1037.       1018.       1056.       1196.       1311.       1350.    
        1285.       1217.       1214.       1207.       1163.       1100.    
  10    218.3       340.1       489.0       649.6       847.0       1019.    
        1029.       1025.       1110.       1268.       1368.       1394.    
        1331.       1241.       1217.       1212.       1163.       1100.    
  11    287.7       377.5       506.4       655.2       823.4       949.3    
        1021.       1064.       1153.       1295.       1386.       1402.    
        1357.       1263.       1220.       1214.       1159.       1100.    
  12    9999.       9999.       9999.       9999.       882.4       959.4    
        1036.       1092.       1152.       1295.       1399.       1415.    
        1387.       1304.       1254.       1215.       1166.       1100.    
  13    9999.       9999.       9999.       9999.       9999.       1010.    
        1073.       1136.       1202.       1308.       1411.       1442.    
        1427.       1341.       1268.       1222.       1186.       1155.    
  14    9999.       9999.       9999.       9999.       9999.       9999.    
        1123.       1177.       1227.       1286.       1347.       1371.    
        1358.       1312.       1256.       1207.       1194.       1182.    
  15    9999.       9999.       9999.       9999.       9999.       9999.    
        9999.       1221.       1239.       1258.       1284.       1294.    
        1283.       1252.       1230.       1204.       1195.       1189.    
  16    9999.       9999.       9999.       9999.       9999.       9999.    
        9999.       9999.       1245.       1251.       1261.       1263.    
        1253.       1232.       1220.       1205.       1197.       1194.    
  17    9999.       9999.       9999.       9999.       9999.       9999.    
        9999.       9999.       9999.       1250.       1252.       1250.    
        1242.       1228.       1216.       1204.       1198.       1195.    
  18    9999.       9999.       9999.       9999.       9999.       9999.    
        9999.       9999.       9999.       9999.       1248.       1245.    
        1238.       1227.       1215.       1203.       1198.       1195.    
1
              HEAD IN LAYER   3 AT END OF TIME STEP   1 IN STRESS PERIOD    1
  ---------------------------------------------------------------------------

            1           2           3           4           5           6
            7           8           9          10          11          12
           13          14          15          16          17          18
 ........................................................................
   1    0.000       324.3       771.3       967.0       984.7       1004.    
        1036.       1089.       1131.       1157.       1172.       9999.    
        9999.       9999.       9999.       9999.       9999.       9999.    
   2    0.000       311.0       718.3       920.5       986.4       997.5    
        1016.       1067.       1122.       1159.       1181.       1186.    
        9999.       9999.       9999.       9999.       9999.       9999.    
   3    0.000       288.6       672.4       865.9       957.2       988.4    
        1008.       1058.       1109.       1147.       1178.       1189.    
        1192.       9999.       9999.       9999.       9999.       9999.    
   4    0.000       248.4       594.2       810.1       917.4       970.3    
        1006.       1047.       1090.       1128.       1156.       1181.    
        1193.       1194.       9999.       9999.       9999.       9999.    
   5    0.000       212.7       517.4       741.2       882.8       961.2    
        1002.       1029.       1063.       1102.       1132.       1157.    
        1182.       1193.       1193.       9999.       9999.       9999.    
   6    0.000       196.1       464.8       695.4       872.9       971.7    
        1016.       1028.       1049.       1078.       1099.       1116.    
        1140.       1152.       1154.       1142.       9999.       9999.    
   7    97.82       229.5       431.6       660.6       874.8       991.9    
        1044.       1050.       1055.       1061.       1066.       1072.    
        1077.       1083.       1088.       1092.       1095.       9999.    
   8    198.5       269.9       429.6       628.8       843.1       986.2    
        1042.       1040.       1056.       1081.       1138.       1195.    
        1190.       1174.       1165.       1145.       1098.       1100.    
   9    264.0       339.8       467.6       569.5       771.7       952.3    
        1022.       1039.       1085.       1143.       1204.       1263.    
        1265.       1232.       1214.       1191.       1131.       1100.    
  10    307.6       379.6       493.1       616.2       739.0       904.0    
        1003.       1050.       1132.       1239.       1303.       1323.    
        1288.       1249.       1221.       1197.       1147.       1100.    
  11    338.8       404.1       511.6       641.1       786.0       878.2    
        984.5       1076.       1194.       1330.       1359.       1358.    
        1320.       1270.       1232.       1201.       1150.       1100.    
  12    9999.       9999.       9999.       9999.       860.5       920.5    
        1014.       1098.       1185.       1309.       1371.       1367.    
        1338.       1295.       1258.       1206.       1146.       1100.    
  13    9999.       9999.       9999.       9999.       9999.       995.0    
        1059.       1128.       1205.       1294.       1364.       1381.    
        1362.       1311.       1261.       1216.       1174.       1144.    
  14    9999.       9999.       9999.       9999.       9999.       9999.    
        1114.       1164.       1216.       1270.       1311.       1326.    
        1314.       1283.       1245.       1212.       1193.       1181.    
  15    9999.       9999.       9999.       9999.       9999.       9999.    
        9999.       1204.       1234.       1250.       1262.       1265.    
        1258.       1242.       1225.       1208.       1198.       1193.    
  16    9999.       9999.       9999.       9999.       9999.       9999.    
        9999.       9999.       1243.       1250.       1255.       1256.    
        1248.       1235.       1222.       1209.       1201.       1196.    
  17    9999.       9999.       9999.       9999.       9999.       9999.    
        9999.       9999.       9999.       1250.       1251.       1248.    
        1242.       1231.       1219.       1209.       1201.       1197.    
  18    9999.       9999.       9999.       9999.       9999.       9999.    
        9999.       9999.       9999.       9999.       1248.       1245.    
        1238.       1229.       1218.       1208.       1202.       1197.    

 HEAD WILL BE SAVED ON UNIT   13 AT END OF TIME STEP   1, STRESS PERIOD    1
1
  VOLUMETRIC BUDGET FOR ENTIRE MODEL AT END OF TIME STEP  1 IN STRESS PERIOD   1
  ------------------------------------------------------------------------------

     CUMULATIVE VOLUMES      L**3       RATES FOR THIS TIME STEP      L**3/T
     ------------------                 ------------------------

           IN:                                      IN:
           ---                                      ---
             STORAGE =           0.0000               STORAGE =           0.0000
       CONSTANT HEAD =   288836288.0000         CONSTANT HEAD =        3343.0127
               WELLS =           0.0000                 WELLS =           0.0000
              DRAINS =           0.0000                DRAINS =           0.0000
                  ET =           0.0000                    ET =           0.0000
     HEAD DEP BOUNDS =           0.0000       HEAD DEP BOUNDS =           0.0000
            RECHARGE =  1145025280.0000              RECHARGE =       13252.6074

            TOTAL IN =  1433861632.0000              TOTAL IN =       16595.6211

          OUT:                                     OUT:
          ----                                     ----
             STORAGE =           0.0000               STORAGE =           0.0000
       CONSTANT HEAD =   375639968.0000         CONSTANT HEAD =        4347.6851
               WELLS =    38880000.0000                 WELLS =         450.0000
              DRAINS =   136763056.0000                DRAINS =        1582.9058
                  ET =   652628800.0000                    ET =        7553.5737
     HEAD DEP BOUNDS =   229960880.0000       HEAD DEP BOUNDS =        2661.5842
            RECHARGE =           0.0000              RECHARGE =           0.0000

           TOTAL OUT =  1433872640.0000             TOTAL OUT =       16595.7480

            IN - OUT =      -11008.0000              IN - OUT =          -0.1270

 PERCENT DISCREPANCY =           0.00     PERCENT DISCREPANCY =           0.00






          TIME SUMMARY AT END OF TIME STEP   1 IN STRESS PERIOD    1
                    SECONDS     MINUTES      HOURS       DAYS        YEARS
                    -----------------------------------------------------------
   TIME STEP LENGTH 7.46496E+09 1.24416E+08 2.07360E+06  86400.      236.55    
 STRESS PERIOD TIME 7.46496E+09 1.24416E+08 2.07360E+06  86400.      236.55    
         TOTAL TIME 7.46496E+09 1.24416E+08 2.07360E+06  86400.      236.55    
1

 DATA AT HEAD LOCATIONS

        OBSERVATION     OBSER-     SIMUL.                          WEIGHTED
   OBS#    NAME         VATION     EQUIV.    RESIDUAL  WEIGHT**.5  RESIDUAL
                          *          *
      1 WL2-4           983.       983.      0.122E-03  0.200      0.244E-04
      2 WL2-7          0.102E+04  0.102E+04   0.00      0.200       0.00    
      3 WL2-10         0.119E+04  0.119E+04  0.244E-03  0.200      0.488E-04
      4 WL4-2           294.       294.      0.458E-03  0.200      0.916E-04
      5 WL4-6           969.       969.      0.427E-03  0.200      0.854E-04
      6 WL4-9          0.118E+04  0.118E+04  0.244E-03  0.200      0.488E-04
      7 WL4-12         0.120E+04  0.120E+04  0.244E-03  0.200      0.488E-04
      8 WL5-4           776.       776.     -0.122E-02  0.200     -0.244E-03
      9 WL6-2           194.       194.      0.641E-03  0.200      0.128E-03
     10 WL6-6           968.       968.      0.275E-02  0.200      0.549E-03
     11 WL6-8           973.       973.     -0.854E-03  0.200     -0.171E-03
     12 WL6-11         0.120E+04  0.120E+04  0.366E-03  0.200      0.732E-04
     13 WL6-14         0.120E+04  0.120E+04  0.610E-03  0.200      0.122E-03
     14 WL6-16         0.120E+04  0.120E+04  0.122E-03  0.200      0.244E-04
     15 WL8-2           217.       217.      0.122E-03  0.200      0.244E-04
     16 WL8-4           666.       666.      0.183E-03  0.200      0.366E-04
     17 WL8-7          0.104E+04  0.104E+04 -0.366E-03  0.200     -0.732E-04
     18 WL8-10         0.124E+04  0.124E+04   0.00      0.200       0.00    
     19 WL8-13         0.126E+04  0.126E+04 -0.244E-03  0.200     -0.488E-04
     20 WL8-16         0.120E+04  0.120E+04  0.110E-02  0.200      0.220E-03
     21 WL9-3           460.       460.     -0.153E-03  0.200     -0.305E-04
     22 WL10-4          655.       655.     -0.366E-03  0.200     -0.732E-04
     23 WL10-6          969.       969.      0.488E-03  0.200      0.977E-04
     24 WL10-9         0.113E+04  0.113E+04 -0.122E-03  0.200     -0.244E-04
     25 WL10-11        0.140E+04  0.140E+04  0.244E-03  0.200      0.488E-04
     26 WL10-14        0.128E+04  0.128E+04 -0.488E-03  0.200     -0.977E-04
     27 WL10-17        0.116E+04  0.116E+04  0.488E-03  0.200      0.977E-04
     28 WL11-2          346.       346.      0.488E-03  0.200      0.977E-04
     29 WL12-8         0.108E+04  0.108E+04 -0.244E-03  0.200     -0.488E-04
     30 WL12-10        0.132E+04  0.132E+04  0.122E-03  0.200      0.244E-04
     31 WL12-13        0.148E+04  0.148E+04  0.854E-03  0.200      0.171E-03
     32 WL12-16        0.122E+04  0.122E+04 -0.366E-03  0.200     -0.732E-04
     33 WL13-11        0.149E+04  0.149E+04  0.610E-03  0.200      0.122E-03
     34 WL13-15        0.132E+04  0.132E+04 -0.122E-03  0.200     -0.244E-04
     35 WL14-9         0.123E+04  0.123E+04  0.366E-03  0.200      0.732E-04
     36 WL14-12        0.141E+04  0.141E+04 -0.122E-03  0.200     -0.244E-04
     37 WL14-17        0.119E+04  0.119E+04 -0.244E-03  0.200     -0.488E-04
     38 WL15-14        0.122E+04  0.122E+04   0.00      0.200       0.00    
     39 WL16-12        0.127E+04  0.127E+04 -0.366E-03  0.200     -0.732E-04
     40 WL16-16        0.120E+04  0.120E+04  0.732E-03  0.200      0.146E-03
     41 WL18-13        0.124E+04  0.124E+04 -0.110E-02  0.200     -0.220E-03
     42 WL18-18        0.120E+04  0.120E+04 -0.122E-03  0.200     -0.244E-04

 * THE OBSERVATION (AND CORRESPONDING SIMULATED EQUIVALENT) IS HEAD OR TEMPORAL
   CHANGE IN HEAD, AS SPECIFIED IN THE "HOB" INPUT FILE.  NEGATIVE TEMPORAL
   CHANGES INDICATE DRAWDOWN.

 STATISTICS FOR HEAD RESIDUALS :
 MAXIMUM WEIGHTED RESIDUAL  : 0.549E-03 OBS#     10
 MINIMUM WEIGHTED RESIDUAL  :-0.244E-03 OBS#      8
 AVERAGE WEIGHTED RESIDUAL  : 0.263E-04
 # RESIDUALS >= 0. :     26
 # RESIDUALS < 0.  :     16
 NUMBER OF RUNS  :   22  IN   42 OBSERVATIONS

 SUM OF SQUARED WEIGHTED RESIDUALS (HEADS ONLY)  0.69376E-06

 DATA FOR FLOWS REPRESENTED USING THE DRAIN PACKAGE

       OBSERVATION      MEAS.      CALC.                          WEIGHTED
  OBS#    NAME          FLOW       FLOW     RESIDUAL  WEIGHT**.5  RESIDUAL

    43 DRN1           -573.      -573.      0.183E-02  0.581E-02  0.106E-04
    44 DRN2           -848.      -848.      0.372E-02  0.393E-02  0.146E-04
    45 DRN3           -135.      -135.      0.595E-03  0.247E-01  0.147E-04
    46 DRN4           -19.4      -19.4     -0.687E-04  0.171     -0.118E-04
    47 DRN5           -6.54      -6.54     -0.119E-04  0.510     -0.608E-05

 STATISTICS FOR DRAIN FLOW RESIDUALS :
 MAXIMUM WEIGHTED RESIDUAL  : 0.147E-04 OBS#     45
 MINIMUM WEIGHTED RESIDUAL  :-0.118E-04 OBS#     46
 AVERAGE WEIGHTED RESIDUAL  : 0.442E-05
 # RESIDUALS >= 0. :      3
 # RESIDUALS < 0.  :      2
 NUMBER OF RUNS:      2  IN      5 OBSERVATIONS

 SUM OF SQUARED WEIGHTED RESIDUALS (DRAIN FLOWS ONLY)  0.71824E-09

 DATA FOR FLOWS REPRESENTED USING THE GENERAL-HEAD BOUNDARY PACKAGE

        OBSERVATION      MEAS.      CALC.                          WEIGHTED
   OBS#    NAME          FLOW       FLOW     RESIDUAL  WEIGHT**.5  RESIDUAL

     48 GHB1           -612.      -612.     -0.195E-02  0.545E-02 -0.106E-04
     49 GHB2           -691.      -691.     -0.311E-02  0.483E-02 -0.150E-04
     50 GHB3           -663.      -663.     -0.232E-02  0.503E-02 -0.117E-04
     51 GHB4           -657.      -657.     -0.220E-02  0.507E-02 -0.111E-04
     52 GHB5           -38.8      -38.8      0.954E-04  0.860E-01  0.820E-05

 STATISTICS FOR GENERAL-HEAD BOUNDARY FLOW RESIDUALS :
 MAXIMUM WEIGHTED RESIDUAL  : 0.820E-05 OBS#     52
 MINIMUM WEIGHTED RESIDUAL  :-0.150E-04 OBS#     49
 AVERAGE WEIGHTED RESIDUAL  :-0.805E-05
 # RESIDUALS >= 0. :      1
 # RESIDUALS < 0.  :      4
 NUMBER OF RUNS:      2  IN      5 OBSERVATIONS

 SUM OF SQUARED WEIGHTED RESIDUALS
   (GENERAL-HEAD BOUNDARY FLOWS ONLY)  0.66634E-09

 SUM OF SQUARED WEIGHTED RESIDUALS (ALL DEPENDENT VARIABLES)  0.69515E-06

 STATISTICS FOR ALL RESIDUALS :
 AVERAGE WEIGHTED RESIDUAL  : 0.209E-04
 # RESIDUALS >= 0. :     30
 # RESIDUALS < 0.  :     22
 NUMBER OF RUNS  :   25  IN   52 OBSERVATIONS

 INTERPRETING THE CALCULATED RUNS STATISTIC VALUE OF    -0.254    
 NOTE: THE FOLLOWING APPLIES ONLY IF 
        # RESIDUALS >= 0 . IS GREATER THAN 10 AND 
        # RESIDUALS < 0.   IS GREATER THAN 10
 THE NEGATIVE VALUE MAY INDICATE TOO FEW RUNS:
    IF THE VALUE IS LESS THAN -1.28, THERE IS LESS THAN A 10 PERCENT
       CHANCE THE VALUES ARE RANDOM,
    IF THE VALUE IS LESS THAN -1.645, THERE IS LESS THAN A 5 PERCENT
       CHANCE THE VALUES ARE RANDOM,
    IF THE VALUE IS LESS THAN -1.96, THERE IS LESS THAN A 2.5 PERCENT
       CHANCE THE VALUES ARE RANDOM.


 ORDERED DEPENDENT-VARIABLE WEIGHTED RESIDUALS
 NUMBER OF RESIDUALS INCLUDED:        52
    -0.244E-03 -0.220E-03 -0.171E-03 -0.977E-04 -0.732E-04 -0.732E-04 -0.732E-04
    -0.732E-04 -0.488E-04 -0.488E-04 -0.488E-04 -0.305E-04 -0.244E-04 -0.244E-04
    -0.244E-04 -0.244E-04 -0.150E-04 -0.118E-04 -0.117E-04 -0.111E-04 -0.106E-04
    -0.608E-05   0.00       0.00       0.00      0.820E-05  0.106E-04  0.146E-04
     0.147E-04  0.244E-04  0.244E-04  0.244E-04  0.244E-04  0.366E-04  0.488E-04
     0.488E-04  0.488E-04  0.488E-04  0.732E-04  0.732E-04  0.854E-04  0.916E-04
     0.977E-04  0.977E-04  0.977E-04  0.122E-03  0.122E-03  0.128E-03  0.146E-03
     0.171E-03  0.220E-03  0.549E-03

 CORRELATION BETWEEN ORDERED WEIGHTED RESIDUALS AND NORMAL ORDER STATISTICS
 FOR OBSERVATIONS =    0.840    

 --------------------------------------------------------------------------
 COMMENTS ON THE INTERPRETATION OF THE CORRELATION BETWEEN
 WEIGHTED RESIDUALS AND NORMAL ORDER STATISTICS:

 The critical value for correlation at the 5% significance level is 0.956

 IF the reported CORRELATION is GREATER than the 5% critical value, ACCEPT
 the hypothesis that the weighted residuals are INDEPENDENT AND NORMALLY
 DISTRIBUTED at the 5% significance level.  The probability that this   
 conclusion is wrong is less than 5%.

 IF the reported correlation IS LESS THAN the 5% critical value REJECT the
 hypothesis that the weighted residuals are INDEPENDENT AND NORMALLY
 DISTRIBUTED at the 5% significance level.

 The analysis can also be done using the 10% significance level.
 The associated critical value is 0.964
 --------------------------------------------------------------------------

