                                  MODFLOW-2000
      U.S. GEOLOGICAL SURVEY MODULAR FINITE-DIFFERENCE GROUND-WATER FLOW MODEL
                           VERSION 1.18.00 08/23/2007


 This model run produced both GLOBAL and LIST files.  This is the LIST file.

 
 # MODFLOW-2000 test case tc2hufv4                                               
 THE FREE FORMAT OPTION HAS BEEN SELECTED
    3 LAYERS        18 ROWS        18 COLUMNS
    1 STRESS PERIOD(S) IN SIMULATION

 BAS6 -- BASIC PACKAGE, VERSION 6, 1/11/2000 INPUT READ FROM UNIT    8
         15 ELEMENTS IN IR ARRAY ARE USED BY BAS

 WEL6 -- WELL PACKAGE, VERSION 6, 1/11/2000 INPUT READ FROM UNIT   12
 No named parameters
 MAXIMUM OF      3 ACTIVE WELLS AT ONE TIME
         12 ELEMENTS IN RX ARRAY ARE USED BY WEL

 DRN6 -- DRAIN PACKAGE, VERSION 6, 1/11/2000 INPUT READ FROM UNIT   13
     1 Named Parameters         5 List entries
 MAXIMUM OF      5 ACTIVE DRAINS AT ONE TIME
         50 ELEMENTS IN RX ARRAY ARE USED BY DRN

 EVT6 -- EVAPOTRANSPIRATION PACKAGE, VERSION 6, 12/14/2000
         INPUT READ FROM UNIT   15
     1 Named Parameters     
 OPTION 1 -- EVAPOTRANSPIRATION FROM TOP LAYER
        972 ELEMENTS IN RX ARRAY ARE USED BY EVT
        324 ELEMENTS IN IR ARRAY ARE USED BY EVT

 GHB6 -- GHB PACKAGE, VERSION 6, 1/11/2000 INPUT READ FROM UNIT   17
     1 Named Parameters         5 List entries
 MAXIMUM OF      5 ACTIVE GHB CELLS AT ONE TIME
         50 ELEMENTS IN RX ARRAY ARE USED BY GHB

 RCH6 -- RECHARGE PACKAGE, VERSION 6, 1/11/2000 INPUT READ FROM UNIT   18
     1 Named Parameters     
 OPTION 1 -- RECHARGE TO TOP LAYER
        324 ELEMENTS IN RX ARRAY ARE USED BY RCH
        324 ELEMENTS IN IR ARRAY ARE USED BY RCH

       1408  ELEMENTS OF RX ARRAY USED OUT OF       1408
          0  ELEMENTS OF RZ ARRAY USED OUT OF          1
        663  ELEMENTS OF IR ARRAY USED OUT OF        663
1
 # MODFLOW-2000 test case tc2hufv4                                               
                                                                                 



                     BOUNDARY ARRAY FOR LAYER   1
 READING ON UNIT    8 WITH FORMAT: (18I3)              



                     BOUNDARY ARRAY FOR LAYER   2
 READING ON UNIT    8 WITH FORMAT: (18I3)              



                     BOUNDARY ARRAY FOR LAYER   3
 READING ON UNIT    8 WITH FORMAT: (18I3)              

 AQUIFER HEAD WILL BE SET TO  9999.0     AT ALL NO-FLOW NODES (IBOUND=0).



                       INITIAL HEAD FOR LAYER   1
 READING ON UNIT    8 WITH FORMAT: (18F10.2)           



                       INITIAL HEAD FOR LAYER   2
 READING ON UNIT    8 WITH FORMAT: (18F10.2)           



                       INITIAL HEAD FOR LAYER   3
 READING ON UNIT    8 WITH FORMAT: (18F10.2)           

 OUTPUT CONTROL IS SPECIFIED ONLY AT TIME STEPS FOR WHICH OUTPUT IS DESIRED
 HEADS WILL BE SAVED WITH FORMAT: (6G11.4)            
 HEAD PRINT FORMAT CODE IS  20    DRAWDOWN PRINT FORMAT CODE IS   0
 HEADS WILL BE SAVED ON UNIT    0    DRAWDOWNS WILL BE SAVED ON UNIT    0


   HYD. COND. ALONG ROWS FOR UNIT HGU2      


              HYD. COND. ALONG ROWS

            1           2           3           4           5           6
            7           8           9          10          11          12
           13          14          15          16          17          18
 ........................................................................
   1   1.0000E-02  1.0000E-04  1.0000E-02   1.000       1.000       1.000    
       1.0000E-02  1.0000E-02   1.000       1.000       1.000       0.000    
        0.000       0.000       0.000       0.000       0.000       0.000    
   2   1.0000E-02  1.0000E-04  1.0000E-02   1.000       1.000       1.000    
       1.0000E-02  1.0000E-02  1.0000E-02   1.000       1.000       1.000    
        0.000       0.000       0.000       0.000       0.000       0.000    
   3   1.0000E-02  1.0000E-04  1.0000E-02  1.0000E-02   1.000      1.0000E-02
       1.0000E-02  1.0000E-04  1.0000E-02   1.000       1.000       1.000    
        1.000       0.000       0.000       0.000       0.000       0.000    
   4   1.0000E-02  1.0000E-04  1.0000E-04  1.0000E-02  1.0000E-02  1.0000E-02
       1.0000E-04  1.0000E-04  1.0000E-02  1.0000E-02  1.0000E-02   1.000    
        1.000       1.000       0.000       0.000       0.000       0.000    
   5   1.0000E-02  1.0000E-04  1.0000E-04  1.0000E-04  1.0000E-04  1.0000E-04
       1.0000E-04  1.0000E-04  1.0000E-04  1.0000E-04  1.0000E-02   1.000    
        1.000       1.000       1.000       0.000       0.000       0.000    
   6   1.0000E-02  1.0000E-04  1.0000E-04  1.0000E-04  1.0000E-04  1.0000E-02
       1.0000E-02  1.0000E-02  1.0000E-04  1.0000E-04  1.0000E-02   1.000    
        1.000       1.000       1.000       1.000       0.000       0.000    
   7   1.0000E-02  1.0000E-04  1.0000E-04  1.0000E-04  1.0000E-04  1.0000E-02
        1.000      1.0000E-02  1.0000E-04  1.0000E-04  1.0000E-02  1.0000E-02
       1.0000E-02   1.000       1.000       1.000       1.000       0.000    
   8   1.0000E-02  1.0000E-04  1.0000E-04  1.0000E-04  1.0000E-04  1.0000E-02
        1.000      1.0000E-02  1.0000E-04  1.0000E-04  1.0000E-02  1.0000E-02
       1.0000E-02   1.000       1.000       1.000       1.000      1.0000E-02
   9   1.0000E-02  1.0000E-04  1.0000E-04  1.0000E-04  1.0000E-04  1.0000E-02
       1.0000E-02  1.0000E-02  1.0000E-04  1.0000E-04  1.0000E-02   1.000    
       1.0000E-02   1.000       1.000       1.000      1.0000E-02  1.0000E-02
  10   1.0000E-02  1.0000E-04  1.0000E-04  1.0000E-04  1.0000E-04  1.0000E-04
       1.0000E-04  1.0000E-04  1.0000E-04  1.0000E-04  1.0000E-02   1.000    
       1.0000E-02  1.0000E-02   1.000      1.0000E-02  1.0000E-02  1.0000E-02
  11   1.0000E-04  1.0000E-04  1.0000E-04  1.0000E-04  1.0000E-04  1.0000E-04
       1.0000E-04  1.0000E-04  1.0000E-04  1.0000E-04  1.0000E-02   1.000    
       1.0000E-02  1.0000E-02   1.000      1.0000E-02  1.0000E-02  1.0000E-02
  12    0.000       0.000       0.000       0.000      1.0000E-04  1.0000E-04
       1.0000E-04  1.0000E-04  1.0000E-04  1.0000E-04  1.0000E-02   1.000    
       1.0000E-02  1.0000E-02  1.0000E-02  1.0000E-02  1.0000E-02  1.0000E-02
  13    0.000       0.000       0.000       0.000       0.000      1.0000E-04
       1.0000E-04  1.0000E-04  1.0000E-04  1.0000E-04  1.0000E-02  1.0000E-02
       1.0000E-02  1.0000E-02  1.0000E-02  1.0000E-02  1.0000E-02   1.000    
  14    0.000       0.000       0.000       0.000       0.000       0.000    
       1.0000E-04  1.0000E-04  1.0000E-04  1.0000E-04  1.0000E-04  1.0000E-04
       1.0000E-04  1.0000E-02  1.0000E-02  1.0000E-02   1.000      1.0000E-02
  15    0.000       0.000       0.000       0.000       0.000       0.000    
        0.000      1.0000E-02  1.0000E-02  1.0000E-02  1.0000E-04  1.0000E-04
       1.0000E-04  1.0000E-04  1.0000E-02  1.0000E-02   1.000      1.0000E-02
  16    0.000       0.000       0.000       0.000       0.000       0.000    
        0.000       0.000       1.000      1.0000E-02  1.0000E-04  1.0000E-04
       1.0000E-04  1.0000E-04  1.0000E-04  1.0000E-02   1.000      1.0000E-02
  17    0.000       0.000       0.000       0.000       0.000       0.000    
        0.000       0.000       0.000      1.0000E-02  1.0000E-04  1.0000E-04
       1.0000E-04  1.0000E-04  1.0000E-04  1.0000E-02  1.0000E-02  1.0000E-02
  18    0.000       0.000       0.000       0.000       0.000       0.000    
        0.000       0.000       0.000       0.000      1.0000E-04  1.0000E-04
       1.0000E-04  1.0000E-04  1.0000E-04  1.0000E-02  1.0000E-02  1.0000E-02


  HORIZ. ANI. (COL./ROW) FOR UNIT HGU2      

   HORIZ. ANI. (COL./ROW) =   1.00000    


     VERTICAL HYD. COND. FOR UNIT HGU2      


                VERTICAL HYD. COND.

            1           2           3           4           5           6
            7           8           9          10          11          12
           13          14          15          16          17          18
 ........................................................................
   1   2.5000E-03  2.5000E-05  2.5000E-03  0.2500      0.2500      0.2500    
       2.5000E-03  2.5000E-03  0.2500      0.2500      0.2500       0.000    
        0.000       0.000       0.000       0.000       0.000       0.000    
   2   2.5000E-03  2.5000E-05  2.5000E-03  0.2500      0.2500      0.2500    
       2.5000E-03  2.5000E-03  2.5000E-03  0.2500      0.2500      0.2500    
        0.000       0.000       0.000       0.000       0.000       0.000    
   3   2.5000E-03  2.5000E-05  2.5000E-03  2.5000E-03  0.2500      2.5000E-03
       2.5000E-03  2.5000E-05  2.5000E-03  0.2500      0.2500      0.2500    
       0.2500       0.000       0.000       0.000       0.000       0.000    
   4   2.5000E-03  2.5000E-05  2.5000E-05  2.5000E-03  2.5000E-03  2.5000E-03
       2.5000E-05  2.5000E-05  2.5000E-03  2.5000E-03  2.5000E-03  0.2500    
       0.2500      0.2500       0.000       0.000       0.000       0.000    
   5   2.5000E-03  2.5000E-05  2.5000E-05  2.5000E-05  2.5000E-05  2.5000E-05
       2.5000E-05  2.5000E-05  2.5000E-05  2.5000E-05  2.5000E-03  0.2500    
       0.2500      0.2500      0.2500       0.000       0.000       0.000    
   6   2.5000E-03  2.5000E-05  2.5000E-05  2.5000E-05  2.5000E-05  2.5000E-03
       2.5000E-03  2.5000E-03  2.5000E-05  2.5000E-05  2.5000E-03  0.2500    
       0.2500      0.2500      0.2500      0.2500       0.000       0.000    
   7   2.5000E-03  2.5000E-05  2.5000E-05  2.5000E-05  2.5000E-05  2.5000E-03
       0.2500      2.5000E-03  2.5000E-05  2.5000E-05  2.5000E-03  2.5000E-03
       2.5000E-03  0.2500      0.2500      0.2500      0.2500       0.000    
   8   2.5000E-03  2.5000E-05  2.5000E-05  2.5000E-05  2.5000E-05  2.5000E-03
       0.2500      2.5000E-03  2.5000E-05  2.5000E-05  2.5000E-03  2.5000E-03
       2.5000E-03  0.2500      0.2500      0.2500      0.2500      2.5000E-03
   9   2.5000E-03  2.5000E-05  2.5000E-05  2.5000E-05  2.5000E-05  2.5000E-03
       2.5000E-03  2.5000E-03  2.5000E-05  2.5000E-05  2.5000E-03  0.2500    
       2.5000E-03  0.2500      0.2500      0.2500      2.5000E-03  2.5000E-03
  10   2.5000E-03  2.5000E-05  2.5000E-05  2.5000E-05  2.5000E-05  2.5000E-05
       2.5000E-05  2.5000E-05  2.5000E-05  2.5000E-05  2.5000E-03  0.2500    
       2.5000E-03  2.5000E-03  0.2500      2.5000E-03  2.5000E-03  2.5000E-03
  11   2.5000E-05  2.5000E-05  2.5000E-05  2.5000E-05  2.5000E-05  2.5000E-05
       2.5000E-05  2.5000E-05  2.5000E-05  2.5000E-05  2.5000E-03  0.2500    
       2.5000E-03  2.5000E-03  0.2500      2.5000E-03  2.5000E-03  2.5000E-03
  12    0.000       0.000       0.000       0.000      2.5000E-05  2.5000E-05
       2.5000E-05  2.5000E-05  2.5000E-05  2.5000E-05  2.5000E-03  0.2500    
       2.5000E-03  2.5000E-03  2.5000E-03  2.5000E-03  2.5000E-03  2.5000E-03
  13    0.000       0.000       0.000       0.000       0.000      2.5000E-05
       2.5000E-05  2.5000E-05  2.5000E-05  2.5000E-05  2.5000E-03  2.5000E-03
       2.5000E-03  2.5000E-03  2.5000E-03  2.5000E-03  2.5000E-03  0.2500    
  14    0.000       0.000       0.000       0.000       0.000       0.000    
       2.5000E-05  2.5000E-05  2.5000E-05  2.5000E-05  2.5000E-05  2.5000E-05
       2.5000E-05  2.5000E-03  2.5000E-03  2.5000E-03  0.2500      2.5000E-03
  15    0.000       0.000       0.000       0.000       0.000       0.000    
        0.000      2.5000E-03  2.5000E-03  2.5000E-03  2.5000E-05  2.5000E-05
       2.5000E-05  2.5000E-05  2.5000E-03  2.5000E-03  0.2500      2.5000E-03
  16    0.000       0.000       0.000       0.000       0.000       0.000    
        0.000       0.000      0.2500      2.5000E-03  2.5000E-05  2.5000E-05
       2.5000E-05  2.5000E-05  2.5000E-05  2.5000E-03  0.2500      2.5000E-03
  17    0.000       0.000       0.000       0.000       0.000       0.000    
        0.000       0.000       0.000      2.5000E-03  2.5000E-05  2.5000E-05
       2.5000E-05  2.5000E-05  2.5000E-05  2.5000E-03  2.5000E-03  2.5000E-03
  18    0.000       0.000       0.000       0.000       0.000       0.000    
        0.000       0.000       0.000       0.000      2.5000E-05  2.5000E-05
       2.5000E-05  2.5000E-05  2.5000E-05  2.5000E-03  2.5000E-03  2.5000E-03
1
                            STRESS PERIOD NO.    1, LENGTH =   86400.00    
                            -----------------------------------------------

                              NUMBER OF TIME STEPS =     1

                               MULTIPLIER FOR DELT =     1.000

                            INITIAL TIME STEP SIZE =   86400.00    

 WELL NO.  LAYER   ROW   COL   STRESS RATE         
 --------------------------------------------------
      1      1      9      7      -100.0    
      2      1      8     16      -200.0    
      3      1     11     13      -150.0    

      3 WELLS

 Parameter:  DRAIN
 DRAIN NO.  LAYER   ROW   COL     DRAIN EL.  CONDUCTANCE         
 ----------------------------------------------------------------
      1      1      7      6       400.0           1.000    
      2      1     10     11       550.0           1.000    
      3      1     14     14       1200.           1.000    
      4      1     15     14       1200.           1.000    
      5      1     16     14       1200.           1.000    

      5 DRAINS

               ET SURFACE =   1000.00    



 EVTR array defined by the following parameters:
 Parameter:  ETM


            EVAPOTRANSPIRATION RATE

            1           2           3           4           5           6
            7           8           9          10          11          12
           13          14          15          16          17          18
 ........................................................................
   1    0.000       0.000       0.000       0.000       0.000       0.000    
        0.000       0.000       0.000       0.000       0.000       0.000    
        0.000       0.000       0.000       0.000       0.000       0.000    
   2    0.000       0.000       0.000       0.000       0.000       0.000    
        0.000       0.000       0.000       0.000       0.000       0.000    
        0.000       0.000       0.000       0.000       0.000       0.000    
   3    0.000       0.000       0.000       0.000       0.000       0.000    
        0.000       0.000       0.000       0.000       0.000       0.000    
        0.000       0.000       0.000       0.000       0.000       0.000    
   4    0.000       0.000       0.000       0.000       0.000       0.000    
        0.000       0.000       0.000       0.000       0.000       0.000    
        0.000       0.000       0.000       0.000       0.000       0.000    
   5    0.000       0.000       0.000       0.000       0.000       0.000    
        0.000       0.000       0.000       0.000       0.000       0.000    
        0.000       0.000       0.000       0.000       0.000       0.000    
   6    0.000       0.000       0.000       0.000       0.000      4.0000E-04
       4.0000E-04  4.0000E-04   0.000       0.000       0.000       0.000    
        0.000       0.000       0.000       0.000       0.000       0.000    
   7    0.000       0.000       0.000       0.000       0.000      4.0000E-04
       4.0000E-04  4.0000E-04   0.000       0.000       0.000       0.000    
        0.000       0.000       0.000       0.000       0.000       0.000    
   8    0.000       0.000       0.000       0.000       0.000      4.0000E-04
       4.0000E-04  4.0000E-04   0.000       0.000       0.000       0.000    
        0.000       0.000       0.000       0.000       0.000       0.000    
   9    0.000       0.000       0.000       0.000       0.000      4.0000E-04
       4.0000E-04  4.0000E-04   0.000       0.000       0.000       0.000    
        0.000       0.000       0.000       0.000       0.000       0.000    
  10    0.000       0.000       0.000       0.000       0.000       0.000    
        0.000       0.000       0.000       0.000       0.000       0.000    
        0.000       0.000       0.000       0.000       0.000       0.000    
  11    0.000       0.000       0.000       0.000       0.000       0.000    
        0.000       0.000       0.000       0.000       0.000       0.000    
        0.000       0.000       0.000       0.000       0.000       0.000    
  12    0.000       0.000       0.000       0.000       0.000       0.000    
        0.000       0.000       0.000       0.000       0.000       0.000    
        0.000       0.000       0.000       0.000       0.000       0.000    
  13    0.000       0.000       0.000       0.000       0.000       0.000    
        0.000       0.000       0.000       0.000       0.000       0.000    
        0.000       0.000       0.000       0.000       0.000       0.000    
  14    0.000       0.000       0.000       0.000       0.000       0.000    
        0.000       0.000       0.000       0.000       0.000       0.000    
        0.000       0.000       0.000       0.000       0.000       0.000    
  15    0.000       0.000       0.000       0.000       0.000       0.000    
        0.000       0.000       0.000       0.000       0.000       0.000    
        0.000       0.000       0.000       0.000       0.000       0.000    
  16    0.000       0.000       0.000       0.000       0.000       0.000    
        0.000       0.000       0.000       0.000       0.000       0.000    
        0.000       0.000       0.000       0.000       0.000       0.000    
  17    0.000       0.000       0.000       0.000       0.000       0.000    
        0.000       0.000       0.000       0.000       0.000       0.000    
        0.000       0.000       0.000       0.000       0.000       0.000    
  18    0.000       0.000       0.000       0.000       0.000       0.000    
        0.000       0.000       0.000       0.000       0.000       0.000    
        0.000       0.000       0.000       0.000       0.000       0.000    

         EXTINCTION DEPTH =   950.000    

 Parameter:  GHB
 BOUND. NO. LAYER   ROW   COL     STAGE      CONDUCTANCE         
 ----------------------------------------------------------------
      1      1      3      6       350.0           1.000    
      2      1      3     11       500.0           1.000    
      3      1      4     11       500.0           1.000    
      4      1      5     11       500.0           1.000    
      5      1     12      9       1000.           1.000    

      5 GHB CELLS



 RECH array defined by the following parameters:
 Parameter:  RCH


                           RECHARGE

            1           2           3           4           5           6
            7           8           9          10          11          12
           13          14          15          16          17          18
 ........................................................................
   1    0.000       0.000       0.000       0.000       0.000       0.000    
        0.000       0.000       0.000       0.000       0.000       0.000    
        0.000       0.000       0.000       0.000       0.000       0.000    
   2    0.000       0.000       0.000       0.000       0.000       0.000    
        0.000       0.000       0.000       0.000       0.000       0.000    
        0.000       0.000       0.000       0.000       0.000       0.000    
   3    0.000       0.000       0.000       0.000       0.000       0.000    
        0.000       0.000       0.000       0.000       0.000       0.000    
        0.000       0.000       0.000       0.000       0.000       0.000    
   4    0.000       0.000       0.000       0.000       0.000       0.000    
        0.000       0.000       0.000       0.000       0.000       0.000    
        0.000       0.000       0.000       0.000       0.000       0.000    
   5    0.000       0.000       0.000       0.000       0.000       0.000    
        0.000       0.000       0.000       0.000       0.000       0.000    
        0.000       0.000       0.000       0.000       0.000       0.000    
   6    0.000       0.000       0.000       0.000       0.000       0.000    
        0.000       0.000       0.000       0.000       0.000       0.000    
        0.000       0.000       0.000       0.000       0.000       0.000    
   7    0.000       0.000       0.000       0.000       0.000       0.000    
        0.000       0.000       0.000       0.000       0.000       0.000    
        0.000       0.000       0.000       0.000       0.000       0.000    
   8    0.000       0.000       0.000       0.000       0.000       0.000    
        0.000       0.000       0.000       0.000       0.000       0.000    
        0.000       0.000       0.000       0.000       0.000       0.000    
   9    0.000       0.000       0.000       0.000       0.000       0.000    
        0.000       0.000       0.000       0.000       0.000      3.1000E-04
       3.1000E-04  3.1000E-04   0.000       0.000       0.000       0.000    
  10    0.000       0.000       0.000       0.000       0.000       0.000    
        0.000       0.000       0.000       0.000       0.000      3.1000E-04
       3.1000E-04  3.1000E-04  3.1000E-04   0.000       0.000       0.000    
  11    0.000       0.000       0.000       0.000       0.000       0.000    
        0.000       0.000       0.000       0.000       0.000      3.1000E-04
       3.1000E-04  3.1000E-04  3.1000E-04   0.000       0.000       0.000    
  12    0.000       0.000       0.000       0.000       0.000       0.000    
        0.000       0.000       0.000       0.000       0.000      3.1000E-04
       3.1000E-04  3.1000E-04  3.1000E-04   0.000       0.000       0.000    
  13    0.000       0.000       0.000       0.000       0.000       0.000    
        0.000       0.000       0.000       0.000       0.000      3.1000E-04
       3.1000E-04  3.1000E-04  3.1000E-04   0.000       0.000       0.000    
  14    0.000       0.000       0.000       0.000       0.000       0.000    
        0.000       0.000       0.000       0.000       0.000       0.000    
        0.000       0.000       0.000       0.000       0.000       0.000    
  15    0.000       0.000       0.000       0.000       0.000       0.000    
        0.000       0.000       0.000       0.000       0.000       0.000    
        0.000       0.000       0.000       0.000       0.000       0.000    
  16    0.000       0.000       0.000       0.000       0.000       0.000    
        0.000       0.000       0.000       0.000       0.000       0.000    
        0.000       0.000       0.000       0.000       0.000       0.000    
  17    0.000       0.000       0.000       0.000       0.000       0.000    
        0.000       0.000       0.000       0.000       0.000       0.000    
        0.000       0.000       0.000       0.000       0.000       0.000    
  18    0.000       0.000       0.000       0.000       0.000       0.000    
        0.000       0.000       0.000       0.000       0.000       0.000    
        0.000       0.000       0.000       0.000       0.000       0.000    
 
 SOLVING FOR HEAD 


    34 CALLS TO PCG ROUTINE FOR TIME STEP   1 IN STRESS PERIOD    1
   256 TOTAL ITERATIONS

 OUTPUT CONTROL FOR STRESS PERIOD    1   TIME STEP   1
    PRINT HEAD FOR ALL LAYERS
    SAVE HEAD FOR ALL LAYERS
1
              HEAD IN LAYER   1 AT END OF TIME STEP   1 IN STRESS PERIOD    1
  ---------------------------------------------------------------------------

            1           2           3           4           5           6
            7           8           9          10          11          12
           13          14          15          16          17          18
 ........................................................................
   1    0.000       466.7       970.9       979.2       979.5       980.1    
        1025.       1124.       1184.       1186.       1187.       9999.    
        9999.       9999.       9999.       9999.       9999.       9999.    
   2    0.000       460.5       968.8       979.0       979.2       979.8    
        1015.       1103.       1171.       1186.       1187.       1189.    
        9999.       9999.       9999.       9999.       9999.       9999.    
   3    0.000       433.0       961.2       973.6       978.6       957.7    
        987.5       1089.       1180.       1187.       1187.       1190.    
        1192.       9999.       9999.       9999.       9999.       9999.    
   4    0.000       291.7       752.5       967.2       971.5       964.4    
        990.4       1083.       1177.       1177.       1160.       1192.    
        1194.       1195.       9999.       9999.       9999.       9999.    
   5    0.000       220.9       552.0       799.2       897.5       929.4    
        956.1       983.7       1078.       1148.       1154.       1194.    
        1195.       1196.       1197.       9999.       9999.       9999.    
   6    0.000       188.8       463.0       692.6       852.1       892.6    
        932.8       906.9       1008.       1148.       1201.       1196.    
        1196.       1198.       1198.       1198.       9999.       9999.    
   7    27.66       189.7       420.5       653.2       857.1       922.1    
        1015.       951.2       1024.       1184.       1260.       1242.    
        1215.       1201.       1200.       1199.       1197.       9999.    
   8    50.33       210.0       431.3       642.5       850.8       944.4    
        1014.       953.3       1037.       1233.       1337.       1346.    
        1257.       1205.       1204.       1201.       1197.       1100.    
   9    67.19       233.9       445.0       634.7       835.3       925.8    
        971.1       931.5       1050.       1276.       1407.       1450.    
        1357.       1210.       1209.       1205.       1177.       1100.    
  10    77.44       262.6       462.4       635.4       812.4       951.3    
        990.3       999.7       1108.       1286.       1395.       1453.    
        1425.       1277.       1214.       1202.       1159.       1100.    
  11    207.7       336.4       484.5       641.0       809.6       926.6    
        996.2       1046.       1130.       1312.       1441.       1457.    
        1448.       1316.       1217.       1205.       1157.       1100.    
  12    9999.       9999.       9999.       9999.       871.6       949.9    
        1018.       1063.       1037.       1312.       1460.       1460.    
        1479.       1376.       1285.       1219.       1165.       1100.    
  13    9999.       9999.       9999.       9999.       9999.       1000.    
        1063.       1124.       1185.       1337.       1483.       1514.    
        1515.       1419.       1315.       1229.       1182.       1154.    
  14    9999.       9999.       9999.       9999.       9999.       9999.    
        1118.       1183.       1225.       1283.       1375.       1405.    
        1388.       1333.       1276.       1216.       1193.       1178.    
  15    9999.       9999.       9999.       9999.       9999.       9999.    
        9999.       1239.       1241.       1243.       1283.       1304.    
        1287.       1219.       1241.       1207.       1193.       1189.    
  16    9999.       9999.       9999.       9999.       9999.       9999.    
        9999.       9999.       1242.       1242.       1256.       1263.    
        1249.       1206.       1216.       1197.       1193.       1192.    
  17    9999.       9999.       9999.       9999.       9999.       9999.    
        9999.       9999.       9999.       1242.       1247.       1247.    
        1239.       1221.       1209.       1196.       1194.       1194.    
  18    9999.       9999.       9999.       9999.       9999.       9999.    
        9999.       9999.       9999.       9999.       1245.       1242.    
        1235.       1223.       1208.       1195.       1195.       1194.    
1
              HEAD IN LAYER   2 AT END OF TIME STEP   1 IN STRESS PERIOD    1
  ---------------------------------------------------------------------------

            1           2           3           4           5           6
            7           8           9          10          11          12
           13          14          15          16          17          18
 ........................................................................
   1    0.000       428.8       825.0       943.4       974.5       992.1    
        1031.       1102.       1152.       1170.       1178.       9999.    
        9999.       9999.       9999.       9999.       9999.       9999.    
   2    0.000       419.9       815.3       933.3       970.6       985.0    
        1008.       1076.       1141.       1171.       1183.       1186.    
        9999.       9999.       9999.       9999.       9999.       9999.    
   3    0.000       391.2       781.6       913.5       957.1       969.6    
        988.6       1055.       1130.       1165.       1186.       1188.    
        1190.       9999.       9999.       9999.       9999.       9999.    
   4    0.000       317.5       654.0       864.4       932.4       953.1    
        981.4       1035.       1096.       1141.       1163.       1184.    
        1192.       1193.       9999.       9999.       9999.       9999.    
   5    0.000       258.3       536.9       756.1       878.4       934.5    
        962.1       976.6       1021.       1099.       1144.       1176.    
        1192.       1191.       1191.       9999.       9999.       9999.    
   6    0.000       225.9       461.9       694.2       868.2       942.6    
        971.9       956.3       992.8       1085.       1147.       1169.    
        1186.       1180.       1184.       1184.       9999.       9999.    
   7    87.04       229.0       389.9       654.8       905.0       974.8    
        1018.       998.7       1016.       1096.       1162.       1175.    
        1169.       1151.       1156.       1156.       1148.       9999.    
   8    139.6       260.6       435.5       642.4       868.6       985.2    
        1017.       993.5       1020.       1128.       1239.       1279.    
        1231.       1200.       1196.       1185.       1153.       1100.    
   9    177.9       297.5       454.7       624.1       851.2       983.2    
        1015.       988.1       1029.       1182.       1304.       1346.    
        1281.       1214.       1211.       1204.       1161.       1100.    
  10    212.0       330.2       474.6       630.5       822.5       990.8    
        1004.       997.6       1089.       1257.       1363.       1390.    
        1328.       1238.       1214.       1209.       1162.       1100.    
  11    279.4       366.6       492.1       637.2       802.4       926.2    
        998.4       1043.       1138.       1287.       1381.       1399.    
        1354.       1260.       1217.       1211.       1158.       1100.    
  12    9999.       9999.       9999.       9999.       862.6       940.3    
        1019.       1078.       1143.       1289.       1395.       1412.    
        1384.       1301.       1251.       1213.       1165.       1100.    
  13    9999.       9999.       9999.       9999.       9999.       993.6    
        1059.       1125.       1195.       1303.       1407.       1439.    
        1424.       1338.       1266.       1220.       1184.       1155.    
  14    9999.       9999.       9999.       9999.       9999.       9999.    
        1111.       1168.       1220.       1280.       1343.       1368.    
        1355.       1310.       1254.       1205.       1193.       1181.    
  15    9999.       9999.       9999.       9999.       9999.       9999.    
        9999.       1214.       1233.       1252.       1279.       1291.    
        1280.       1250.       1229.       1203.       1194.       1188.    
  16    9999.       9999.       9999.       9999.       9999.       9999.    
        9999.       9999.       1240.       1246.       1256.       1260.    
        1250.       1230.       1219.       1203.       1196.       1193.    
  17    9999.       9999.       9999.       9999.       9999.       9999.    
        9999.       9999.       9999.       1245.       1248.       1247.    
        1239.       1226.       1215.       1202.       1197.       1194.    
  18    9999.       9999.       9999.       9999.       9999.       9999.    
        9999.       9999.       9999.       9999.       1245.       1242.    
        1235.       1225.       1213.       1202.       1197.       1194.    
1
              HEAD IN LAYER   3 AT END OF TIME STEP   1 IN STRESS PERIOD    1
  ---------------------------------------------------------------------------

            1           2           3           4           5           6
            7           8           9          10          11          12
           13          14          15          16          17          18
 ........................................................................
   1    0.000       322.8       767.7       962.6       980.1       999.9    
        1032.       1085.       1127.       1154.       1169.       9999.    
        9999.       9999.       9999.       9999.       9999.       9999.    
   2    0.000       309.4       714.6       915.9       981.8       992.8    
        1012.       1061.       1117.       1155.       1178.       1183.    
        9999.       9999.       9999.       9999.       9999.       9999.    
   3    0.000       286.8       668.0       860.1       951.0       983.0    
        1000.       1049.       1100.       1140.       1174.       1186.    
        1189.       9999.       9999.       9999.       9999.       9999.    
   4    0.000       245.8       588.0       801.0       905.4       956.8    
        988.1       1028.       1074.       1117.       1149.       1176.    
        1190.       1191.       9999.       9999.       9999.       9999.    
   5    0.000       209.1       508.0       725.8       860.1       931.9    
        971.3       998.0       1037.       1086.       1122.       1150.    
        1178.       1190.       1190.       9999.       9999.       9999.    
   6    0.000       191.3       452.7       674.5       841.4       934.3    
        985.1       997.3       1023.       1061.       1087.       1107.    
        1134.       1146.       1149.       1138.       9999.       9999.    
   7    94.93       222.9       418.7       639.2       844.5       962.4    
        1024.       1031.       1039.       1046.       1053.       1060.    
        1067.       1075.       1081.       1087.       1092.       9999.    
   8    192.6       261.9       416.4       608.8       816.1       959.7    
        1022.       1019.       1038.       1065.       1127.       1187.    
        1184.       1169.       1161.       1141.       1096.       1100.    
   9    256.3       329.7       453.7       552.6       748.5       925.7    
        999.0       1015.       1065.       1131.       1195.       1257.    
        1261.       1229.       1211.       1188.       1130.       1100.    
  10    298.7       368.6       478.9       598.9       719.1       880.7    
        979.8       1027.       1114.       1229.       1296.       1318.    
        1284.       1246.       1218.       1195.       1146.       1100.    
  11    329.1       392.6       497.3       623.9       766.6       858.2    
        964.0       1057.       1181.       1324.       1354.       1354.    
        1316.       1267.       1229.       1199.       1149.       1100.    
  12    9999.       9999.       9999.       9999.       841.3       901.9    
        997.4       1084.       1175.       1303.       1367.       1363.    
        1335.       1292.       1256.       1205.       1145.       1100.    
  13    9999.       9999.       9999.       9999.       9999.       978.6    
        1045.       1116.       1196.       1288.       1360.       1378.    
        1359.       1308.       1258.       1214.       1173.       1144.    
  14    9999.       9999.       9999.       9999.       9999.       9999.    
        1103.       1154.       1208.       1265.       1307.       1322.    
        1312.       1280.       1244.       1211.       1192.       1180.    
  15    9999.       9999.       9999.       9999.       9999.       9999.    
        9999.       1197.       1228.       1245.       1258.       1262.    
        1255.       1240.       1224.       1207.       1197.       1192.    
  16    9999.       9999.       9999.       9999.       9999.       9999.    
        9999.       9999.       1237.       1245.       1251.       1252.    
        1246.       1233.       1220.       1208.       1199.       1195.    
  17    9999.       9999.       9999.       9999.       9999.       9999.    
        9999.       9999.       9999.       1246.       1247.       1245.    
        1239.       1229.       1218.       1207.       1200.       1196.    
  18    9999.       9999.       9999.       9999.       9999.       9999.    
        9999.       9999.       9999.       9999.       1244.       1242.    
        1236.       1227.       1216.       1207.       1200.       1196.    
1
  VOLUMETRIC BUDGET FOR ENTIRE MODEL AT END OF TIME STEP  1 IN STRESS PERIOD   1
  ------------------------------------------------------------------------------

     CUMULATIVE VOLUMES      L**3       RATES FOR THIS TIME STEP      L**3/T
     ------------------                 ------------------------

           IN:                                      IN:
           ---                                      ---
             STORAGE =           0.0000               STORAGE =           0.0000
       CONSTANT HEAD =   500442528.0000         CONSTANT HEAD =        5792.1592
               WELLS =           0.0000                 WELLS =           0.0000
              DRAINS =           0.0000                DRAINS =           0.0000
                  ET =           0.0000                    ET =           0.0000
     HEAD DEP BOUNDS =           0.0000       HEAD DEP BOUNDS =           0.0000
            RECHARGE =  1145016064.0000              RECHARGE =       13252.5000

            TOTAL IN =  1645458560.0000              TOTAL IN =       19044.6602

          OUT:                                     OUT:
          ----                                     ----
             STORAGE =           0.0000               STORAGE =           0.0000
       CONSTANT HEAD =   367719648.0000         CONSTANT HEAD =        4256.0146
               WELLS =    38880000.0000                 WELLS =         450.0000
              DRAINS =   131848360.0000                DRAINS =        1526.0227
                  ET =   878410880.0000                    ET =       10166.7930
     HEAD DEP BOUNDS =   228600448.0000       HEAD DEP BOUNDS =        2645.8386
            RECHARGE =           0.0000              RECHARGE =           0.0000

           TOTAL OUT =  1645459328.0000             TOTAL OUT =       19044.6680

            IN - OUT =        -768.0000              IN - OUT =      -7.8125E-03

 PERCENT DISCREPANCY =           0.00     PERCENT DISCREPANCY =           0.00






          TIME SUMMARY AT END OF TIME STEP   1 IN STRESS PERIOD    1
                    SECONDS     MINUTES      HOURS       DAYS        YEARS
                    -----------------------------------------------------------
   TIME STEP LENGTH 7.46496E+09 1.24416E+08 2.07360E+06  86400.      236.55    
 STRESS PERIOD TIME 7.46496E+09 1.24416E+08 2.07360E+06  86400.      236.55    
         TOTAL TIME 7.46496E+09 1.24416E+08 2.07360E+06  86400.      236.55    
1
1
  HEAD AT END OF TIME STEP  1 IN STRESS PERIOD  1
  IN HYDROGEOLOGIC UNIT  1 WITH NAME HGU1      
  -----------------------------------------------------------------------

            1           2           3           4           5           6
            7           8           9          10          11          12
           13          14          15          16          17          18
 ........................................................................
   1    0.000       472.7       971.3       979.2       979.5       980.1    
        1025.       1124.       1184.       1186.       1187.       9999.    
        9999.       9999.       9999.       9999.       9999.       9999.    
   2    0.000       467.0       969.2       979.0       979.2       979.8    
        1015.       1103.       1171.       1186.       1187.       1189.    
        9999.       9999.       9999.       9999.       9999.       9999.    
   3    0.000       439.6       961.7       973.8       978.6       957.7    
        987.5       1089.       1180.       1187.       1187.       1190.    
        1192.       9999.       9999.       9999.       9999.       9999.    
   4    0.000       287.6       768.3       967.5       971.6       964.4    
        990.5       1083.       1177.       1177.       1160.       1192.    
        1194.       1195.       9999.       9999.       9999.       9999.    
   5    0.000       214.9       554.5       806.0       900.6       928.6    
        955.1       984.9       1087.       1148.       1154.       1194.    
        1195.       1196.       1197.       9999.       9999.       9999.    
   6    0.000       182.9       463.2       692.3       849.5       884.6    
        926.5       899.0       1010.       1148.       1201.       1196.    
        1196.       1198.       1198.       1198.       9999.       9999.    
   7    27.50       183.4       425.4       653.2       849.4       913.7    
        1014.       943.6       1025.       1184.       1260.       1243.    
        1216.       1201.       1200.       1199.       1197.       9999.    
   8    50.10       201.9       430.7       642.5       847.9       937.9    
        1014.       946.9       1040.       1233.       1337.       1347.    
        1261.       1205.       1204.       1201.       1197.       1100.    
   9    66.89       223.8       443.4       636.5       832.7       916.6    
        953.9       922.4       1053.       1276.       1407.       1450.    
        1357.       1210.       1209.       1205.       1177.       1100.    
  10    77.08       251.8       460.4       636.2       810.8       935.7    
        984.8       1001.       1111.       1291.       1395.       1453.    
        1425.       1283.       1214.       1201.       1159.       1100.    
  11    196.2       331.6       483.3       641.5       810.8       926.7    
        995.8       1046.       1128.       1316.       1441.       1457.    
        1448.       1324.       1217.       1204.       1157.       1100.    
  12    9999.       9999.       9999.       9999.       873.1       951.4    
        1018.       1060.       1020.       1316.       1460.       1460.    
        1479.       1388.       1290.       1219.       1165.       1100.    
  13    9999.       9999.       9999.       9999.       9999.       1001.    
        1064.       1124.       1183.       1342.       1483.       1514.    
        1516.       1419.       1323.       1230.       1182.       1154.    
  14    9999.       9999.       9999.       9999.       9999.       9999.    
        1119.       1186.       1226.       1284.       1381.       1411.    
        1393.       1333.       1276.       1218.       1193.       1177.    
  15    9999.       9999.       9999.       9999.       9999.       9999.    
        9999.       1239.       1241.       1242.       1283.       1306.    
        1288.       1214.       1241.       1207.       1193.       1189.    
  16    9999.       9999.       9999.       9999.       9999.       9999.    
        9999.       9999.       1242.       1242.       1255.       1263.    
        1249.       1202.       1216.       1197.       1193.       1192.    
  17    9999.       9999.       9999.       9999.       9999.       9999.    
        9999.       9999.       9999.       1242.       1247.       1247.    
        1238.       1221.       1209.       1196.       1194.       1194.    
  18    9999.       9999.       9999.       9999.       9999.       9999.    
        9999.       9999.       9999.       9999.       1244.       1242.    
        1235.       1222.       1207.       1195.       1195.       1194.    

 HEAD IN HYDROGEOLOGIC UNITS WILL BE SAVED ON UNIT   90 AT END OF TIME STEP  1, STRESS PERIOD  1
1
  HEAD AT END OF TIME STEP  1 IN STRESS PERIOD  1
  IN HYDROGEOLOGIC UNIT  2 WITH NAME HGU2      
  -----------------------------------------------------------------------

            1           2           3           4           5           6
            7           8           9          10          11          12
           13          14          15          16          17          18
 ........................................................................
   1    0.000       457.6       970.3       979.2       979.5       980.1    
        1025.       1124.       1184.       1186.       1187.       9999.    
        9999.       9999.       9999.       9999.       9999.       9999.    
   2    0.000       450.8       968.2       979.0       979.2       979.8    
        1015.       1103.       1171.       1186.       1187.       1189.    
        9999.       9999.       9999.       9999.       9999.       9999.    
   3    0.000       422.9       960.5       973.4       978.6       957.8    
        987.5       1089.       1180.       1187.       1187.       1190.    
        1192.       9999.       9999.       9999.       9999.       9999.    
   4    0.000       297.9       728.9       966.8       971.3       964.3    
        990.4       1082.       1177.       1177.       1160.       1192.    
        1194.       1195.       9999.       9999.       9999.       9999.    
   5    0.000       229.9       548.4       788.8       892.9       930.6    
        957.5       982.0       1064.       1148.       1154.       1194.    
        1195.       1196.       1197.       9999.       9999.       9999.    
   6    0.000       197.7       462.7       693.0       856.0       904.6    
        942.2       918.8       1004.       1147.       1201.       1196.    
        1196.       1198.       1198.       1198.       9999.       9999.    
   7    27.89       199.1       413.2       653.2       868.6       934.8    
        1016.       962.6       1022.       1184.       1260.       1242.    
        1215.       1200.       1200.       1199.       1197.       9999.    
   8    50.69       222.1       432.3       642.5       855.1       954.2    
        1015.       963.0       1033.       1233.       1337.       1346.    
        1251.       1205.       1204.       1201.       1197.       1100.    
   9    67.63       249.2       447.3       632.2       839.1       939.6    
        996.8       945.1       1045.       1275.       1407.       1450.    
        1356.       1210.       1210.       1205.       1177.       1100.    
  10    77.97       278.8       465.3       634.3       814.9       974.7    
        998.5       998.5       1103.       1279.       1395.       1453.    
        1424.       1267.       1214.       1204.       1159.       1100.    
  11    224.9       343.7       486.3       640.1       807.9       926.5    
        996.7       1045.       1132.       1306.       1441.       1457.    
        1448.       1302.       1217.       1206.       1157.       1100.    
  12    9999.       9999.       9999.       9999.       869.5       947.6    
        1018.       1066.       1062.       1307.       1459.       1460.    
        1479.       1358.       1277.       1217.       1165.       1100.    
  13    9999.       9999.       9999.       9999.       9999.       998.8    
        1062.       1124.       1187.       1328.       1483.       1513.    
        1515.       1419.       1303.       1227.       1183.       1154.    
  14    9999.       9999.       9999.       9999.       9999.       9999.    
        1116.       1179.       1224.       1283.       1368.       1396.    
        1380.       1333.       1276.       1213.       1193.       1178.    
  15    9999.       9999.       9999.       9999.       9999.       9999.    
        9999.       1239.       1241.       1243.       1282.       1301.    
        1285.       1226.       1241.       1206.       1193.       1189.    
  16    9999.       9999.       9999.       9999.       9999.       9999.    
        9999.       9999.       1242.       1242.       1256.       1262.    
        1249.       1212.       1217.       1197.       1193.       1192.    
  17    9999.       9999.       9999.       9999.       9999.       9999.    
        9999.       9999.       9999.       1242.       1247.       1247.    
        1239.       1223.       1211.       1196.       1194.       1194.    
  18    9999.       9999.       9999.       9999.       9999.       9999.    
        9999.       9999.       9999.       9999.       1245.       1242.    
        1235.       1223.       1209.       1195.       1195.       1194.    
1
  HEAD AT END OF TIME STEP  1 IN STRESS PERIOD  1
  IN HYDROGEOLOGIC UNIT  3 WITH NAME HGU3      
  -----------------------------------------------------------------------

            1           2           3           4           5           6
            7           8           9          10          11          12
           13          14          15          16          17          18
 ........................................................................
   1    0.000       434.8       863.6       952.9       975.8       988.9    
        1029.       1108.       1160.       1174.       1181.       9999.    
        9999.       9999.       9999.       9999.       9999.       9999.    
   2    0.000       426.4       855.9       945.5       972.9       983.6    
        1010.       1083.       1149.       1175.       1184.       1187.    
        9999.       9999.       9999.       9999.       9999.       9999.    
   3    0.000       397.9       829.2       929.4       962.9       966.4    
        988.3       1064.       1143.       1171.       1187.       1189.    
        1191.       9999.       9999.       9999.       9999.       9999.    
   4    0.000       313.3       669.8       891.7       942.8       956.1    
        983.8       1047.       1117.       1151.       1162.       1186.    
        1192.       1193.       9999.       9999.       9999.       9999.    
   5    0.000       252.3       539.3       763.0       881.4       933.7    
        961.1       977.7       1030.       1112.       1147.       1181.    
        1193.       1192.       1192.       9999.       9999.       9999.    
   6    0.000       219.9       462.1       694.0       865.6       934.6    
        965.7       948.4       995.1       1101.       1161.       1176.    
        1189.       1185.       1188.       1188.       9999.       9999.    
   7    71.31       222.7       394.8       654.4       897.4       966.4    
        1018.       991.1       1018.       1120.       1188.       1193.    
        1181.       1164.       1168.       1167.       1161.       9999.    
   8    116.0       252.5       434.8       642.4       865.8       978.6    
        1017.       987.1       1022.       1156.       1265.       1297.    
        1236.       1202.       1198.       1189.       1165.       1100.    
   9    148.6       287.3       453.1       625.8       848.6       974.1    
        1014.       979.1       1032.       1207.       1332.       1374.    
        1301.       1213.       1211.       1204.       1165.       1100.    
  10    176.3       319.4       472.7       631.3       820.9       990.7    
        1004.       997.6       1092.       1262.       1372.       1407.    
        1353.       1244.       1214.       1208.       1161.       1100.    
  11    267.9       361.8       490.9       637.8       803.5       926.3    
        998.0       1043.       1137.       1291.       1397.       1414.    
        1379.       1269.       1217.       1210.       1157.       1100.    
  12    9999.       9999.       9999.       9999.       864.0       941.8    
        1018.       1075.       1126.       1293.       1412.       1425.    
        1409.       1313.       1256.       1214.       1165.       1100.    
  13    9999.       9999.       9999.       9999.       9999.       994.7    
        1059.       1124.       1193.       1308.       1427.       1459.    
        1448.       1360.       1274.       1221.       1184.       1154.    
  14    9999.       9999.       9999.       9999.       9999.       9999.    
        1112.       1170.       1221.       1281.       1348.       1374.    
        1360.       1317.       1260.       1207.       1193.       1180.    
  15    9999.       9999.       9999.       9999.       9999.       9999.    
        9999.       1221.       1235.       1250.       1280.       1293.    
        1281.       1245.       1232.       1203.       1194.       1188.    
  16    9999.       9999.       9999.       9999.       9999.       9999.    
        9999.       9999.       1240.       1245.       1256.       1260.    
        1250.       1226.       1218.       1202.       1195.       1192.    
  17    9999.       9999.       9999.       9999.       9999.       9999.    
        9999.       9999.       9999.       1244.       1247.       1247.    
        1239.       1226.       1214.       1201.       1196.       1194.    
  18    9999.       9999.       9999.       9999.       9999.       9999.    
        9999.       9999.       9999.       9999.       1245.       1242.    
        1235.       1225.       1212.       1200.       1196.       1194.    
1
  HEAD AT END OF TIME STEP  1 IN STRESS PERIOD  1
  IN HYDROGEOLOGIC UNIT  4 WITH NAME HGU4      
  -----------------------------------------------------------------------

            1           2           3           4           5           6
            7           8           9          10          11          12
           13          14          15          16          17          18
 ........................................................................
   1    0.000       427.2       824.2       952.7       977.3       995.9    
        1031.       1093.       1140.       1162.       1174.       9999.    
        9999.       9999.       9999.       9999.       9999.       9999.    
   2    0.000       418.3       813.8       933.1       976.0       988.8    
        1010.       1069.       1130.       1163.       1181.       1185.    
        9999.       9999.       9999.       9999.       9999.       9999.    
   3    0.000       389.7       780.0       912.7       957.1       976.1    
        988.7       1052.       1115.       1153.       1186.       1187.    
        1189.       9999.       9999.       9999.       9999.       9999.    
   4    0.000       316.4       653.0       863.5       932.0       953.2    
        984.7       1032.       1085.       1129.       1156.       1180.    
        1191.       1192.       9999.       9999.       9999.       9999.    
   5    0.000       257.6       536.4       755.7       878.1       934.4    
        962.2       976.9       1021.       1093.       1133.       1163.    
        1192.       1191.       1190.       9999.       9999.       9999.    
   6    0.000       225.4       461.8       693.9       867.8       942.6    
        971.9       956.3       993.2       1073.       1118.       1139.    
        1186.       1180.       1184.       1184.       9999.       9999.    
   7    90.90       228.9       390.3       647.2       904.2       974.8    
        1021.       1023.       1033.       1059.       1082.       1091.    
        1095.       1095.       1101.       1105.       1107.       9999.    
   8    165.5       261.2       435.2       641.9       867.9       985.2    
        1019.       993.9       1028.       1082.       1184.       1277.    
        1231.       1200.       1196.       1185.       1112.       1100.    
   9    216.2       313.3       454.2       589.2       849.7       983.2    
        1015.       988.2       1029.       1145.       1225.       1303.    
        1271.       1214.       1211.       1204.       1146.       1100.    
  10    254.4       349.0       476.7       615.1       772.0       990.8    
        1004.       997.6       1089.       1257.       1362.       1389.    
        1306.       1238.       1214.       1208.       1154.       1100.    
  11    303.7       379.3       494.6       630.7       784.9       893.0    
        997.9       1043.       1139.       1305.       1368.       1377.    
        1336.       1260.       1217.       1211.       1153.       1100.    
  12    9999.       9999.       9999.       9999.       852.2       921.5    
        1018.       1078.       1144.       1289.       1381.       1388.    
        1360.       1301.       1251.       1213.       1165.       1100.    
  13    9999.       9999.       9999.       9999.       9999.       986.3    
        1052.       1124.       1195.       1303.       1407.       1438.    
        1423.       1338.       1266.       1220.       1184.       1155.    
  14    9999.       9999.       9999.       9999.       9999.       9999.    
        1107.       1161.       1220.       1280.       1343.       1367.    
        1354.       1310.       1254.       1205.       1193.       1181.    
  15    9999.       9999.       9999.       9999.       9999.       9999.    
        9999.       1206.       1231.       1249.       1269.       1277.    
        1268.       1245.       1226.       1203.       1194.       1188.    
  16    9999.       9999.       9999.       9999.       9999.       9999.    
        9999.       9999.       1238.       1246.       1254.       1256.    
        1248.       1232.       1220.       1205.       1198.       1194.    
  17    9999.       9999.       9999.       9999.       9999.       9999.    
        9999.       9999.       9999.       1245.       1247.       1246.    
        1239.       1228.       1216.       1205.       1198.       1194.    
  18    9999.       9999.       9999.       9999.       9999.       9999.    
        9999.       9999.       9999.       9999.       1244.       1242.    
        1235.       1226.       1215.       1204.       1198.       1194.    
1
  HEAD AT END OF TIME STEP  1 IN STRESS PERIOD  1
  IN HYDROGEOLOGIC UNIT  5 WITH NAME HGU5      
  -----------------------------------------------------------------------

            1           2           3           4           5           6
            7           8           9          10          11          12
           13          14          15          16          17          18
 ........................................................................
   1    0.000       322.8       767.7       962.6       980.1       999.9    
        1032.       1085.       1127.       1154.       1169.       9999.    
        9999.       9999.       9999.       9999.       9999.       9999.    
   2    0.000       309.4       714.6       915.9       981.8       992.8    
        1012.       1061.       1117.       1155.       1178.       1183.    
        9999.       9999.       9999.       9999.       9999.       9999.    
   3    0.000       286.8       668.0       860.1       951.0       983.0    
        1000.       1049.       1100.       1140.       1174.       1186.    
        1189.       9999.       9999.       9999.       9999.       9999.    
   4    0.000       245.8       588.0       801.0       905.4       956.8    
        988.1       1028.       1074.       1117.       1149.       1176.    
        1190.       1191.       9999.       9999.       9999.       9999.    
   5    0.000       209.1       508.0       725.8       860.1       931.9    
        971.3       998.0       1037.       1086.       1122.       1150.    
        1178.       1190.       1190.       9999.       9999.       9999.    
   6    0.000       191.3       452.7       674.5       841.4       934.3    
        985.1       997.3       1023.       1061.       1087.       1107.    
        1134.       1146.       1149.       1138.       9999.       9999.    
   7    94.93       222.9       418.7       639.2       844.5       962.4    
        1024.       1031.       1039.       1046.       1053.       1060.    
        1067.       1075.       1081.       1087.       1092.       9999.    
   8    192.6       261.9       416.4       608.8       816.1       959.7    
        1022.       1019.       1038.       1065.       1127.       1187.    
        1184.       1169.       1161.       1141.       1096.       1100.    
   9    256.3       329.7       453.7       552.6       748.5       925.7    
        999.0       1015.       1065.       1131.       1195.       1257.    
        1261.       1229.       1211.       1188.       1130.       1100.    
  10    298.7       368.6       478.9       598.9       719.1       880.7    
        979.8       1027.       1114.       1229.       1296.       1318.    
        1284.       1246.       1218.       1195.       1146.       1100.    
  11    329.1       392.6       497.3       623.9       766.6       858.2    
        964.0       1057.       1181.       1324.       1354.       1354.    
        1316.       1267.       1229.       1199.       1149.       1100.    
  12    9999.       9999.       9999.       9999.       841.3       901.9    
        997.4       1084.       1175.       1303.       1367.       1363.    
        1335.       1292.       1256.       1205.       1145.       1100.    
  13    9999.       9999.       9999.       9999.       9999.       978.6    
        1045.       1116.       1196.       1288.       1360.       1378.    
        1359.       1308.       1258.       1214.       1173.       1144.    
  14    9999.       9999.       9999.       9999.       9999.       9999.    
        1103.       1154.       1208.       1265.       1307.       1322.    
        1312.       1280.       1244.       1211.       1192.       1180.    
  15    9999.       9999.       9999.       9999.       9999.       9999.    
        9999.       1197.       1228.       1245.       1258.       1262.    
        1255.       1240.       1224.       1207.       1197.       1192.    
  16    9999.       9999.       9999.       9999.       9999.       9999.    
        9999.       9999.       1237.       1245.       1251.       1252.    
        1246.       1233.       1220.       1208.       1199.       1195.    
  17    9999.       9999.       9999.       9999.       9999.       9999.    
        9999.       9999.       9999.       1246.       1247.       1245.    
        1239.       1229.       1218.       1207.       1200.       1196.    
  18    9999.       9999.       9999.       9999.       9999.       9999.    
        9999.       9999.       9999.       9999.       1244.       1242.    
        1236.       1227.       1216.       1207.       1200.       1196.    

 DATA AT HEAD LOCATIONS

        OBSERVATION     OBSER-     SIMUL.                          WEIGHTED
   OBS#    NAME         VATION     EQUIV.    RESIDUAL  WEIGHT**.5  RESIDUAL
                          *          *
      1 Wl2-4           979.       979.     -0.183E-03  0.200     -0.366E-04
      2 WL2-7          0.102E+04  0.102E+04 -0.183E-03  0.200     -0.366E-04
      3 WL2-10         0.119E+04  0.119E+04  0.488E-03  0.200      0.977E-04
      4 WL4-2           292.       292.     -0.488E-03  0.200     -0.977E-04
      5 WL4-6           964.       964.      0.122E-03  0.200      0.244E-04
      6 WL4-9          0.118E+04  0.118E+04 -0.244E-03  0.200     -0.488E-04
      7 WL4-12         0.119E+04  0.119E+04  0.488E-03  0.200      0.977E-04
      8 WL5-4           761.       761.       0.00      0.200       0.00    
      9 WL6-2           189.       189.     -0.366E-03  0.200     -0.732E-04
     10 WL6-6           893.       893.      0.610E-04  0.200      0.122E-04
     11 WL6-8           907.       907.      0.427E-03  0.200      0.854E-04
     12 WL6-11         0.120E+04  0.120E+04   0.00      0.200       0.00    
     13 WL6-14         0.120E+04  0.120E+04  0.366E-03  0.200      0.732E-04
     14 WL6-16         0.120E+04  0.120E+04  0.366E-03  0.200      0.732E-04
     15 WL8-2           210.       210.      0.244E-03  0.200      0.488E-04
     16 WL8-4           642.       642.      0.305E-03  0.200      0.610E-04
     17 WL8-7          0.101E+04  0.101E+04 -0.366E-03  0.200     -0.732E-04
     18 WL8-10         0.123E+04  0.123E+04  0.244E-03  0.200      0.488E-04
     19 WL8-13         0.126E+04  0.126E+04 -0.244E-03  0.200     -0.488E-04
     20 WL8-16         0.120E+04  0.120E+04 -0.122E-03  0.200     -0.244E-04
     21 WL9-3           445.       445.     -0.336E-03  0.200     -0.671E-04
     22 WL10-4          635.       635.     -0.488E-03  0.200     -0.977E-04
     23 WL10-6          941.       941.       0.00      0.200       0.00    
     24 WL10-9         0.111E+04  0.111E+04 -0.366E-03  0.200     -0.732E-04
     25 WL10-11        0.140E+04  0.140E+04  0.366E-03  0.200      0.732E-04
     26 WL10-14        0.128E+04  0.128E+04  0.366E-03  0.200      0.732E-04
     27 WL10-17        0.116E+04  0.116E+04 -0.366E-03  0.200     -0.732E-04
     28 WL11-2          336.       336.      0.336E-03  0.200      0.671E-04
     29 WL12-8         0.106E+04  0.106E+04  0.122E-03  0.200      0.244E-04
     30 WL12-10        0.131E+04  0.131E+04 -0.610E-03  0.200     -0.122E-03
     31 WL12-13        0.148E+04  0.148E+04 -0.610E-03  0.200     -0.122E-03
     32 WL12-16        0.122E+04  0.122E+04 -0.366E-03  0.200     -0.732E-04
     33 WL13-11        0.148E+04  0.148E+04  0.366E-03  0.200      0.732E-04
     34 WL13-15        0.131E+04  0.131E+04  0.122E-03  0.200      0.244E-04
     35 WL14-9         0.123E+04  0.123E+04  0.122E-03  0.200      0.244E-04
     36 WL14-12        0.140E+04  0.140E+04   0.00      0.200       0.00    
     37 WL14-17        0.119E+04  0.119E+04  0.122E-03  0.200      0.244E-04
     38 WL15-14        0.122E+04  0.122E+04   0.00      0.200       0.00    
     39 WL16-12        0.126E+04  0.126E+04  0.244E-03  0.200      0.488E-04
     40 WL16-16        0.120E+04  0.120E+04 -0.244E-03  0.200     -0.488E-04
     41 WL18-13        0.123E+04  0.123E+04  0.122E-03  0.200      0.244E-04
     42 WL18-18        0.119E+04  0.119E+04  0.244E-03  0.200      0.488E-04

 * THE OBSERVATION (AND CORRESPONDING SIMULATED EQUIVALENT) IS HEAD OR TEMPORAL
   CHANGE IN HEAD, AS SPECIFIED IN THE "HOB" INPUT FILE.  NEGATIVE TEMPORAL
   CHANGES INDICATE DRAWDOWN.

 STATISTICS FOR HEAD RESIDUALS :
 MAXIMUM WEIGHTED RESIDUAL  : 0.977E-04 OBS#      3
 MINIMUM WEIGHTED RESIDUAL  :-0.122E-03 OBS#     30
 AVERAGE WEIGHTED RESIDUAL  : 0.291E-06
 # RESIDUALS >= 0. :     26
 # RESIDUALS < 0.  :     16
 NUMBER OF RUNS  :   17  IN   42 OBSERVATIONS

 SUM OF SQUARED WEIGHTED RESIDUALS (HEADS ONLY)  0.16533E-06

 DATA FOR FLOWS REPRESENTED USING THE DRAIN PACKAGE

       OBSERVATION      MEAS.      CALC.                          WEIGHTED
  OBS#    NAME          FLOW       FLOW     RESIDUAL  WEIGHT**.5  RESIDUAL

    43 DRN1           -522.      -522.      0.116      0.639E-02  0.741E-03
    44 DRN2           -845.      -845.      0.352      0.394E-02  0.139E-02
    45 DRN3           -133.      -133.      0.351      0.251E-01  0.879E-02
    46 DRN4           -19.0      -19.0      0.198E-02  0.175      0.347E-03
    47 DRN5           -6.20      -6.20      0.238E-02  0.538      0.128E-02

 STATISTICS FOR DRAIN FLOW RESIDUALS :
 MAXIMUM WEIGHTED RESIDUAL  : 0.879E-02 OBS#     45
 MINIMUM WEIGHTED RESIDUAL  : 0.347E-03 OBS#     46
 AVERAGE WEIGHTED RESIDUAL  : 0.251E-02
 # RESIDUALS >= 0. :      5
 # RESIDUALS < 0.  :      0
 NUMBER OF RUNS:      1  IN      5 OBSERVATIONS

 SUM OF SQUARED WEIGHTED RESIDUALS (DRAIN FLOWS ONLY)  0.81432E-04

 DATA FOR FLOWS REPRESENTED USING THE GENERAL-HEAD BOUNDARY PACKAGE

        OBSERVATION      MEAS.      CALC.                          WEIGHTED
   OBS#    NAME          FLOW       FLOW     RESIDUAL  WEIGHT**.5  RESIDUAL

     48 GHB1           -608.      -608.     -0.258      0.548E-02 -0.142E-02
     49 GHB2           -687.      -687.      0.387      0.485E-02  0.188E-02
     50 GHB3           -660.      -660.     -0.343      0.505E-02 -0.173E-02
     51 GHB4           -654.      -654.      0.327      0.510E-02  0.167E-02
     52 GHB5           -36.7      -36.7      0.255E-01  0.908E-01  0.232E-02

 STATISTICS FOR GENERAL-HEAD BOUNDARY FLOW RESIDUALS :
 MAXIMUM WEIGHTED RESIDUAL  : 0.232E-02 OBS#     52
 MINIMUM WEIGHTED RESIDUAL  :-0.173E-02 OBS#     50
 AVERAGE WEIGHTED RESIDUAL  : 0.543E-03
 # RESIDUALS >= 0. :      3
 # RESIDUALS < 0.  :      2
 NUMBER OF RUNS:      4  IN      5 OBSERVATIONS

 SUM OF SQUARED WEIGHTED RESIDUALS
   (GENERAL-HEAD BOUNDARY FLOWS ONLY)  0.16699E-04

 SUM OF SQUARED WEIGHTED RESIDUALS (ALL DEPENDENT VARIABLES)  0.98296E-04

 STATISTICS FOR ALL RESIDUALS :
 AVERAGE WEIGHTED RESIDUAL  : 0.294E-03
 # RESIDUALS >= 0. :     34
 # RESIDUALS < 0.  :     18
 NUMBER OF RUNS  :   21  IN   52 OBSERVATIONS

 INTERPRETING THE CALCULATED RUNS STATISTIC VALUE OF    -0.942    
 NOTE: THE FOLLOWING APPLIES ONLY IF 
        # RESIDUALS >= 0 . IS GREATER THAN 10 AND 
        # RESIDUALS < 0.   IS GREATER THAN 10
 THE NEGATIVE VALUE MAY INDICATE TOO FEW RUNS:
    IF THE VALUE IS LESS THAN -1.28, THERE IS LESS THAN A 10 PERCENT
       CHANCE THE VALUES ARE RANDOM,
    IF THE VALUE IS LESS THAN -1.645, THERE IS LESS THAN A 5 PERCENT
       CHANCE THE VALUES ARE RANDOM,
    IF THE VALUE IS LESS THAN -1.96, THERE IS LESS THAN A 2.5 PERCENT
       CHANCE THE VALUES ARE RANDOM.


 ORDERED DEPENDENT-VARIABLE WEIGHTED RESIDUALS
 NUMBER OF RESIDUALS INCLUDED:        52
    -0.173E-02 -0.142E-02 -0.122E-03 -0.122E-03 -0.977E-04 -0.977E-04 -0.732E-04
    -0.732E-04 -0.732E-04 -0.732E-04 -0.732E-04 -0.671E-04 -0.488E-04 -0.488E-04
    -0.488E-04 -0.366E-04 -0.366E-04 -0.244E-04   0.00       0.00       0.00    
      0.00       0.00      0.122E-04  0.244E-04  0.244E-04  0.244E-04  0.244E-04
     0.244E-04  0.244E-04  0.488E-04  0.488E-04  0.488E-04  0.488E-04  0.610E-04
     0.671E-04  0.732E-04  0.732E-04  0.732E-04  0.732E-04  0.732E-04  0.854E-04
     0.977E-04  0.977E-04  0.347E-03  0.741E-03  0.128E-02  0.139E-02  0.167E-02
     0.188E-02  0.232E-02  0.879E-02

 CORRELATION BETWEEN ORDERED WEIGHTED RESIDUALS AND NORMAL ORDER STATISTICS
 FOR OBSERVATIONS =    0.404    

 --------------------------------------------------------------------------
 COMMENTS ON THE INTERPRETATION OF THE CORRELATION BETWEEN
 WEIGHTED RESIDUALS AND NORMAL ORDER STATISTICS:

 The critical value for correlation at the 5% significance level is 0.956

 IF the reported CORRELATION is GREATER than the 5% critical value, ACCEPT
 the hypothesis that the weighted residuals are INDEPENDENT AND NORMALLY
 DISTRIBUTED at the 5% significance level.  The probability that this   
 conclusion is wrong is less than 5%.

 IF the reported correlation IS LESS THAN the 5% critical value REJECT the
 hypothesis that the weighted residuals are INDEPENDENT AND NORMALLY
 DISTRIBUTED at the 5% significance level.

 The analysis can also be done using the 10% significance level.
 The associated critical value is 0.964
 --------------------------------------------------------------------------

