                                  MODFLOW-2000
      U.S. GEOLOGICAL SURVEY MODULAR FINITE-DIFFERENCE GROUND-WATER FLOW MODEL
                           VERSION 1.14.00 07/01/2004


 This model run combines GLOBAL and LIST output into this single file.

 GLOBAL LISTING FILE: test1tr.lst
                         UNIT    9

 OPENING ../data/test1tr.ba6
 FILE TYPE:BAS6   UNIT   75   STATUS:OLD    
 FORMAT:FORMATTED              ACCESS:SEQUENTIAL          

 OPENING ../data/test1tr.lpf
 FILE TYPE:LPF   UNIT    7   STATUS:OLD    
 FORMAT:FORMATTED              ACCESS:SEQUENTIAL          

 OPENING ../data/test1tr.dis
 FILE TYPE:DIS   UNIT    8   STATUS:OLD    
 FORMAT:FORMATTED              ACCESS:SEQUENTIAL          

 OPENING ../data/test1tr.sip
 FILE TYPE:SIP   UNIT   13   STATUS:OLD    
 FORMAT:FORMATTED              ACCESS:SEQUENTIAL          

 OPENING ../data/test1tr.oc
 FILE TYPE:OC   UNIT   14   STATUS:OLD    
 FORMAT:FORMATTED              ACCESS:SEQUENTIAL          

 OPENING ../data/test1tr.sfr
 FILE TYPE:SFR   UNIT   15   STATUS:OLD    
 FORMAT:FORMATTED              ACCESS:SEQUENTIAL          

 OPENING ../data/test1tr.wel
 FILE TYPE:WEL   UNIT   16   STATUS:OLD    
 FORMAT:FORMATTED              ACCESS:SEQUENTIAL          

 OPENING ../data/test1tr.ghb
 FILE TYPE:GHB   UNIT   17   STATUS:OLD    
 FORMAT:FORMATTED              ACCESS:SEQUENTIAL          

 OPENING ../data/test1tr.evt
 FILE TYPE:EVT   UNIT   18   STATUS:OLD    
 FORMAT:FORMATTED              ACCESS:SEQUENTIAL          

 OPENING ../data/test1tr.rch
 FILE TYPE:RCH   UNIT   19   STATUS:OLD    
 FORMAT:FORMATTED              ACCESS:SEQUENTIAL          

 OPENING ../data/test1tr.gag
 FILE TYPE:GAGE   UNIT   32   STATUS:OLD    
 FORMAT:FORMATTED              ACCESS:SEQUENTIAL          

 OPENING test1tr.hds
 FILE TYPE:DATA   UNIT   58   STATUS:UNKNOWN
 FORMAT:FORMATTED              ACCESS:SEQUENTIAL          

 OPENING test1tr.et
 FILE TYPE:DATA(BINARY)   UNIT   59   STATUS:UNKNOWN
 FORMAT:UNFORMATTED            ACCESS:TRANSPARENT         

 OPENING test1tr.flw
 FILE TYPE:DATA   UNIT   81   STATUS:UNKNOWN
 FORMAT:FORMATTED              ACCESS:SEQUENTIAL          

 OPENING test1tr.sg1
 FILE TYPE:DATA   UNIT   83   STATUS:UNKNOWN
 FORMAT:FORMATTED              ACCESS:SEQUENTIAL          

 OPENING test1tr.sg2
 FILE TYPE:DATA   UNIT   84   STATUS:UNKNOWN
 FORMAT:FORMATTED              ACCESS:SEQUENTIAL          

 OPENING test1tr.sg3
 FILE TYPE:DATA   UNIT   85   STATUS:UNKNOWN
 FORMAT:FORMATTED              ACCESS:SEQUENTIAL          

 OPENING test1tr.sg4
 FILE TYPE:DATA   UNIT   86   STATUS:UNKNOWN
 FORMAT:FORMATTED              ACCESS:SEQUENTIAL          

 OPENING test1tr.sg5
 FILE TYPE:DATA   UNIT   87   STATUS:UNKNOWN
 FORMAT:FORMATTED              ACCESS:SEQUENTIAL          

 OPENING test1tr.sg6
 FILE TYPE:DATA   UNIT   88   STATUS:UNKNOWN
 FORMAT:FORMATTED              ACCESS:SEQUENTIAL          

 OPENING test1tr.sg7
 FILE TYPE:DATA   UNIT   89   STATUS:UNKNOWN
 FORMAT:FORMATTED              ACCESS:SEQUENTIAL          

 OPENING test1tr.sg8
 FILE TYPE:DATA   UNIT   90   STATUS:UNKNOWN
 FORMAT:FORMATTED              ACCESS:SEQUENTIAL          

 OPENING test1tr.dvsg9
 FILE TYPE:DATA   UNIT   91   STATUS:UNKNOWN
 FORMAT:FORMATTED              ACCESS:SEQUENTIAL          

 THE FREE FORMAT OPTION HAS BEEN SELECTED

 DISCRETIZATION INPUT DATA READ FROM UNIT    8
 #Discretization input data for Test1 --Transient
    1 LAYERS        15 ROWS        10 COLUMNS
    2 STRESS PERIOD(S) IN SIMULATION
 MODEL TIME UNIT IS SECONDS
 MODEL LENGTH UNIT IS FEET
 THE GROUND-WATER TRANSPORT PROCESS IS INACTIVE

 THE OBSERVATION PROCESS IS INACTIVE
 THE SENSITIVITY PROCESS IS INACTIVE
 THE PARAMETER-ESTIMATION PROCESS IS INACTIVE

 MODE: FORWARD

  Confining bed flag for each layer:
   0

       1375  ELEMENTS OF GX ARRAY USED OUT OF       1375
        150  ELEMENTS OF GZ ARRAY USED OUT OF        150
        150  ELEMENTS OF IG ARRAY USED OUT OF        150

                     DELR =   5000.00    

                     DELC =   5000.00    



           TOP ELEVATION OF LAYER 1
 READING ON UNIT    8 WITH FORMAT: (10F7.0)            

            1           2           3           4           5           6           7           8           9          10
 ........................................................................................................................
   1    1105.       1105.       0.000       0.000       0.000       0.000       0.000       0.000       0.000       0.000    
   2    1105.       1095.       1105.       0.000       0.000       1100.       1100.       1110.       0.000       0.000    
   3    0.000       1100.       1085.       1080.       1078.       1076.       1073.       1090.       0.000       0.000    
   4    1110.       1100.       1090.       1085.       1076.       1080.       1080.       1070.       1100.       0.000    
   5    1110.       1100.       1085.       1080.       1078.       1074.       1077.       1066.       1075.       1080.    
   6    1105.       1095.       1080.       1077.       1073.       1069.       1070.       1063.       1085.       1095.    
   7    1105.       1090.       1075.       1072.       1070.       1065.       1065.       1069.       1090.       0.000    
   8    0.000       1080.       1070.       1068.       1063.       1060.       1063.       1067.       1090.       0.000    
   9    0.000       1075.       1065.       1062.       1058.       1052.       1055.       1065.       1090.       0.000    
  10    0.000       1070.       1060.       1055.       1046.       1046.       1044.       1060.       1088.       1100.    
  11    0.000       1055.       1050.       1045.       1041.       1042.       1040.       1050.       1075.       0.000    
  12    1027.       1028.       1028.       1032.       1032.       1033.       1032.       1040.       1060.       0.000    
  13    997.0       1004.       1008.       1014.       1020.       1027.       1032.       1038.       1050.       0.000    
  14    0.000       1030.       1040.       1045.       1050.       1050.       1050.       1050.       1044.       0.000    
  15    0.000       0.000       1080.       1080.       1080.       1080.       0.000       0.000       0.000       0.000    



             MODEL LAYER BOTTOM EL. FOR LAYER   1
 READING ON UNIT    8 WITH FORMAT: (10F7.0)            

            1           2           3           4           5           6           7           8           9          10
 ........................................................................................................................
   1    1000.       1000.       0.000       0.000       0.000       0.000       0.000       0.000       0.000       0.000    
   2    1000.       900.0       900.0       0.000       0.000       950.0       950.0       950.0       0.000       0.000    
   3    0.000       850.0       670.0       680.0       680.0       770.0       770.0       890.0       0.000       0.000    
   4    925.0       850.0       650.0       650.0       650.0       680.0       740.0       850.0       950.0       0.000    
   5    925.0       800.0       650.0       600.0       600.0       600.0       650.0       720.0       850.0       950.0    
   6    925.0       800.0       650.0       600.0       550.0       600.0       650.0       720.0       850.0       970.0    
   7    925.0       800.0       650.0       600.0       550.0       600.0       650.0       720.0       950.0       0.000    
   8    0.000       850.0       700.0       650.0       570.0       600.0       700.0       850.0       950.0       0.000    
   9    0.000       850.0       700.0       650.0       540.0       580.0       700.0       850.0       950.0       0.000    
  10    0.000       850.0       700.0       630.0       530.0       580.0       650.0       800.0       900.0       950.0    
  11    0.000       850.0       700.0       620.0       580.0       620.0       700.0       800.0       900.0       0.000    
  12    900.0       830.0       710.0       640.0       600.0       650.0       700.0       800.0       900.0       0.000    
  13    900.0       810.0       750.0       700.0       650.0       700.0       750.0       800.0       900.0       0.000    
  14    0.000       950.0       850.0       850.0       850.0       850.0       850.0       850.0       850.0       0.000    
  15    0.000       0.000       950.0       950.0       950.0       950.0       0.000       0.000       0.000       0.000    


 STRESS PERIOD     LENGTH       TIME STEPS     MULTIPLIER FOR DELT    SS FLAG
 ----------------------------------------------------------------------------
        1        1.5778801E+09     50                    1.100         TR
        2        1.5778801E+09     50                    1.100         TR

 TRANSIENT SIMULATION




 LPF1 -- LAYER PROPERTY FLOW PACKAGE, VERSION 1, 1/11/2000
         INPUT READ FROM UNIT    7
 # Layer-Property Flow Package input
 # For transient and steady state simulations
 HEAD AT CELLS THAT CONVERT TO DRY=   0.0000    
 No named parameters

   LAYER FLAGS:
 LAYER       LAYTYP        LAYAVG         CHANI        LAYVKA        LAYWET
 ---------------------------------------------------------------------------
    1             1             0     1.000E+00             1             0

   INTERPRETATION OF LAYER FLAGS:
                        INTERBLOCK     HORIZONTAL    DATA IN
         LAYER TYPE   TRANSMISSIVITY   ANISOTROPY   ARRAY VKA   WETTABILITY
 LAYER      (LAYTYP)      (LAYAVG)       (CHANI)      (LAYVKA)      (LAYWET)
 ---------------------------------------------------------------------------
    1   CONVERTIBLE      HARMONIC     1.000E+00    ANISOTROPY  NON-WETTABLE

        600 ELEMENTS IN X ARRAY ARE USED BY LPF
          6 ELEMENTS IN IX ARRAY ARE USED BY LPF

 SIP5 -- STRONGLY IMPLICIT PROCEDURE SOLUTION PACKAGE
                    VERSION 5, 9/1/93 INPUT READ FROM UNIT   13
 MAXIMUM OF 300 ITERATIONS ALLOWED FOR CLOSURE
  5 ITERATION PARAMETERS
        905 ELEMENTS IN X ARRAY ARE USED BY SIP
        900 ELEMENTS IN IX ARRAY ARE USED BY SIP

       1505  ELEMENTS OF X ARRAY USED OUT OF       1505
          0  ELEMENTS OF Z ARRAY USED OUT OF          1
        906  ELEMENTS OF IX ARRAY USED OUT OF        906
          0  ELEMENTS OF XHS ARRAY USED OUT OF          1



          SOLUTION BY THE STRONGLY IMPLICIT PROCEDURE
          -------------------------------------------
 MAXIMUM ITERATIONS ALLOWED FOR CLOSURE =      300
                 ACCELERATION PARAMETER =    0.80000    
      HEAD CHANGE CRITERION FOR CLOSURE =    0.10000E-02
      SIP HEAD CHANGE PRINTOUT INTERVAL =        1

     CALCULATE ITERATION PARAMETERS FROM MODEL CALCULATED WSEED

 WETTING CAPABILITY IS NOT ACTIVE IN ANY LAYER



              HYD. COND. ALONG ROWS FOR LAYER   1
 READING ON UNIT    7 WITH FORMAT: (10F5.0)            

            1           2           3           4           5           6           7           8           9          10
 ........................................................................................................................
   1   2.0000E-03  2.0000E-03   0.000       0.000       0.000       0.000       0.000       0.000       0.000       0.000    
   2   4.0000E-04  2.0000E-03  2.0000E-03   0.000       0.000      4.0000E-04  4.0000E-04  4.0000E-04   0.000       0.000    
   3    0.000      4.0000E-04  2.0000E-03  2.0000E-03  4.0000E-04  4.0000E-04  4.0000E-04  4.0000E-04   0.000       0.000    
   4   4.0000E-04  4.0000E-04  4.0000E-04  2.0000E-03  2.0000E-03  2.0000E-03  4.0000E-04  4.0000E-04  4.0000E-04   0.000    
   5   4.0000E-04  4.0000E-04  4.0000E-04  2.0000E-03  2.0000E-03  2.0000E-03  2.0000E-03  2.0000E-03  2.0000E-03  2.0000E-03
   6   4.0000E-04  4.0000E-04  4.0000E-04  2.0000E-03  2.0000E-03  2.0000E-03  2.0000E-03  2.0000E-03  4.0000E-04  4.0000E-04
   7   4.0000E-04  4.0000E-04  4.0000E-04  2.0000E-03  2.0000E-03  2.0000E-03  2.0000E-03  2.0000E-03  4.0000E-04   0.000    
   8    0.000      4.0000E-04  4.0000E-04  2.0000E-03  2.0000E-03  2.0000E-03  2.0000E-03  4.0000E-04  4.0000E-04   0.000    
   9    0.000      4.0000E-04  4.0000E-04  2.0000E-03  2.0000E-03  2.0000E-03  2.0000E-03  4.0000E-04  4.0000E-04   0.000    
  10    0.000      4.0000E-04  4.0000E-04  2.0000E-03  2.0000E-03  2.0000E-03  2.0000E-03  4.0000E-04  4.0000E-04  4.0000E-04
  11    0.000      4.0000E-04  4.0000E-04  2.0000E-03  2.0000E-03  2.0000E-03  2.0000E-03  4.0000E-04  4.0000E-04   0.000    
  12   4.0000E-04  4.0000E-04  2.0000E-03  2.0000E-03  2.0000E-03  2.0000E-03  2.0000E-03  4.0000E-04  4.0000E-04   0.000    
  13   2.0000E-03  2.0000E-03  2.0000E-03  2.0000E-03  2.0000E-03  2.0000E-03  2.0000E-03  2.0000E-03  2.0000E-03   0.000    
  14    0.000      4.0000E-04  4.0000E-04  4.0000E-04  4.0000E-04  4.0000E-04  4.0000E-04  4.0000E-04  2.0000E-03   0.000    
  15    0.000       0.000      4.0000E-04  4.0000E-04  4.0000E-04  4.0000E-04   0.000       0.000       0.000       0.000    

  HORIZ. TO VERTICAL ANI. =   1.00000     FOR LAYER   1

         SPECIFIC STORAGE =  1.000000E-06 FOR LAYER   1



                     SPECIFIC YIELD FOR LAYER   1
 READING ON UNIT    7 WITH FORMAT: (10F4.0)            

            1           2           3           4           5           6           7           8           9          10
 ........................................................................................................................
   1   0.2000      0.2000       0.000       0.000       0.000       0.000       0.000       0.000       0.000       0.000    
   2   0.1000      0.2000      0.2000       0.000       0.000      0.1000      0.1000      0.1000       0.000       0.000    
   3    0.000      0.1000      0.2000      0.2000      0.1000      0.1000      0.1000      0.1000       0.000       0.000    
   4   0.1000      0.1000      0.1000      0.2000      0.2000      0.2000      0.1000      0.1000      0.1000       0.000    
   5   0.1000      0.1000      0.1000      0.2000      0.2000      0.2000      0.2000      0.2000      0.2000      0.2000    
   6   0.1000      0.1000      0.1000      0.2000      0.2000      0.2000      0.2000      0.2000      0.1000      0.1000    
   7   0.1000      0.1000      0.1000      0.2000      0.2000      0.2000      0.2000      0.2000      0.1000       0.000    
   8    0.000      0.1000      0.1000      0.2000      0.2000      0.2000      0.2000      0.1000      0.1000       0.000    
   9    0.000      0.1000      0.1000      0.2000      0.2000      0.2000      0.2000      0.1000      0.1000       0.000    
  10    0.000      0.1000      0.1000      0.2000      0.2000      0.2000      0.2000      0.1000      0.1000      0.1000    
  11    0.000      0.1000      0.1000      0.2000      0.2000      0.2000      0.2000      0.1000      0.1000       0.000    
  12   0.1000      0.1000      0.2000      0.2000      0.2000      0.2000      0.2000      0.1000      0.1000       0.000    
  13   0.2000      0.2000      0.2000      0.2000      0.2000      0.2000      0.2000      0.2000      0.2000       0.000    
  14    0.000      0.1000      0.1000      0.1000      0.1000      0.1000      0.1000      0.1000      0.2000       0.000    
  15    0.000       0.000      0.1000      0.1000      0.1000      0.1000       0.000       0.000       0.000       0.000    
 
 #TestProblem 1                                                                  
 #Transient Simulation For SFR Package                                           
 THE FREE FORMAT OPTION HAS BEEN SELECTED
    1 LAYERS        15 ROWS        10 COLUMNS
    2 STRESS PERIOD(S) IN SIMULATION

 BAS6 -- BASIC PACKAGE, VERSION 6, 1/11/2000 INPUT READ FROM UNIT   75
          5 ELEMENTS IN IR ARRAY ARE USED BY BAS

 WEL6 -- WELL PACKAGE, VERSION 6, 1/11/2000 INPUT READ FROM UNIT   16
 No named parameters
 MAXIMUM OF     10 ACTIVE WELLS AT ONE TIME
 CELL-BY-CELL FLOWS WILL BE PRINTED WHEN ICBCFL NOT 0
         40 ELEMENTS IN RX ARRAY ARE USED BY WEL

 EVT6 -- EVAPOTRANSPIRATION PACKAGE, VERSION 6, 12/14/2000
         INPUT READ FROM UNIT   18
 No named parameters
 OPTION 1 -- EVAPOTRANSPIRATION FROM TOP LAYER
 CELL-BY-CELL FLOWS WILL BE SAVED ON UNIT   59
        450 ELEMENTS IN RX ARRAY ARE USED BY EVT
        150 ELEMENTS IN IR ARRAY ARE USED BY EVT

 GHB6 -- GHB PACKAGE, VERSION 6, 1/11/2000 INPUT READ FROM UNIT   17
 No named parameters
 MAXIMUM OF      2 ACTIVE GHB CELLS AT ONE TIME
 CELL-BY-CELL FLOWS WILL BE PRINTED WHEN ICBCFL NOT 0
         10 ELEMENTS IN RX ARRAY ARE USED BY GHB

 RCH6 -- RECHARGE PACKAGE, VERSION 6, 1/11/2000 INPUT READ FROM UNIT   19
 No named parameters
 OPTION 1 -- RECHARGE TO TOP LAYER
        150 ELEMENTS IN RX ARRAY ARE USED BY RCH
        150 ELEMENTS IN IR ARRAY ARE USED BY RCH

 SFR1 -- STREAMFLOW ROUTING PACKAGE, VERSION 1, 8/15/2003
         INPUT READ FROM UNIT  15
 #Test Problem 1 using SFR1


 NUMBER OF STREAM NODES IS     36

 NUMBER OF STREAM SEGMENTS IS      8

 NUMBER OF STREAM PARAMETERS IS    0

 NUMBER OF STREAM SEGMENTS DEFINED USING PARAMETERS IS      0

 MAXIMUM DIFFERENCE IN STREAM HEAD BETWEEN ITERATONS IS   1.00E-04

 CONSTANT FOR MANNINGS EQUATION IS  1.4860E+00



 STREAMFLOW OUT OF EACH REACH WILL BE SAVED ON UNIT   81
       2147 ELEMENTS IN RX ARRAY ARE USED BY SFR
        236 ELEMENTS IN IR ARRAY ARE USED BY SFR
          3 ELEMENTS IN RX ARRAY ARE USED BY GAGE
         36 ELEMENTS IN IR ARRAY ARE USED BY GAGE

       2980  ELEMENTS OF RX ARRAY USED OUT OF       2980
        577  ELEMENTS OF IR ARRAY USED OUT OF        577
1
 #TestProblem 1                                                                  
 #Transient Simulation For SFR Package                                           



                     BOUNDARY ARRAY FOR LAYER   1
 READING ON UNIT   75 WITH FORMAT: (20I4)              

                1           2           3           4           5           6           7           8           9          10
 ............................................................................................................................
   1            1           1           0           0           0           0           0           0           0           0
   2            1           1           1           0           0           1           1           1           0           0
   3            0           1           1           1           1           1           1           1           0           0
   4            1           1           1           1           1           1           1           1           1           0
   5            1           1           1           1           1           1           1           1           1           1
   6            1           1           1           1           1           1           1           1           1           1
   7            1           1           1           1           1           1           1           1           1           0
   8            0           1           1           1           1           1           1           1           1           0
   9            0           1           1           1           1           1           1           1           1           0
  10            0           1           1           1           1           1           1           1           1           1
  11            0           1           1           1           1           1           1           1           1           0
  12            1           1           1           1           1           1           1           1           1           0
  13            1           1           1           1           1           1           1           1           1           0
  14            0           1           1           1           1           1           1           1           1           0
  15            0           0           1           1           1           1           0           0           0           0

 AQUIFER HEAD WILL BE SET TO  6999.0     AT ALL NO-FLOW NODES (IBOUND=0).



                       INITIAL HEAD FOR LAYER   1
 READING ON UNIT   75 WITH FORMAT: (10F8.0)            

            1           2           3           4           5           6           7           8           9          10
 ........................................................................................................................
   1    1093.       1089.       6999.       6999.       6999.       6999.       6999.       6999.       6999.       6999.    
   2    1090.       1087.       1081.       6999.       6999.       1072.       1072.       1071.       6999.       6999.    
   3    6999.       1079.       1078.       1074.       1072.       1071.       1069.       1068.       6999.       6999.    
   4    1069.       1071.       1070.       1067.       1066.       1064.       1064.       1066.       1066.       6999.    
   5    1065.       1064.       1063.       1062.       1061.       1061.       1060.       1062.       1066.       1068.    
   6    1060.       1058.       1057.       1056.       1056.       1057.       1057.       1059.       1062.       1066.    
   7    1056.       1053.       1052.       1051.       1051.       1052.       1053.       1056.       1056.       6999.    
   8    6999.       1046.       1046.       1046.       1046.       1046.       1048.       1050.       1050.       6999.    
   9    6999.       1039.       1039.       1040.       1040.       1041.       1042.       1043.       1044.       6999.    
  10    6999.       1031.       1032.       1033.       1034.       1035.       1036.       1038.       1039.       1042.    
  11    6999.       1021.       1023.       1027.       1029.       1030.       1032.       1034.       1036.       6999.    
  12    1001.       1009.       1014.       1020.       1023.       1026.       1029.       1030.       1034.       6999.    
  13    994.5       1000.       1007.       1013.       1019.       1024.       1029.       1034.       1036.       6999.    
  14    6999.       1004.       1009.       1014.       1019.       1024.       1030.       1035.       1039.       6999.    
  15    6999.       6999.       1012.       1015.       1019.       1022.       6999.       6999.       6999.       6999.    

 OUTPUT CONTROL IS SPECIFIED ONLY AT TIME STEPS FOR WHICH OUTPUT IS DESIRED
 HEADS WILL BE SAVED WITH FORMAT: (10F10.3)           
 SAVED HEADS WILL BE LABELED
 HEAD PRINT FORMAT CODE IS   4    DRAWDOWN PRINT FORMAT CODE IS   0
 HEADS WILL BE SAVED ON UNIT   58    DRAWDOWNS WILL BE SAVED ON UNIT    0


     0 Well parameters


     0 Evapotranspiration parameters


     0 GHB parameters


     0 Recharge parameters


   STREAM NETWORK DESCRIPTION: 

   LAYER    ROW    COL   SEGMENT   REACH     LENGTH
                          NUMBER   NUMBER    IN CELL
   --------------------------------------------------
       1      1      1       1        1     4.500E+03
       1      2      2       1        2     7.000E+03
       1      3      3       1        3     6.000E+03
       1      3      4       1        4     5.550E+03
       1      4      5       2        1     6.500E+03
       1      5      6       2        2     5.000E+03
       1      6      6       2        3     5.000E+03
       1      7      6       2        4     5.000E+03
       1      8      6       2        5     5.000E+03
       1      3      5       3        1     5.000E+03
       1      3      6       3        2     5.000E+03
       1      3      7       3        3     4.500E+03
       1      4      8       3        4     6.000E+03
       1      5      8       3        5     5.000E+03
       1      6      8       3        6     2.000E+03
       1      5     10       4        1     2.500E+03
       1      5      9       4        2     5.000E+03
       1      6      8       4        3     3.500E+03
       1      6      8       5        1     4.000E+03
       1      7      7       5        2     5.000E+03
       1      8      7       5        3     3.500E+03
       1      8      6       5        4     2.500E+03
       1      9      6       6        1     5.000E+03
       1     10      7       6        2     5.000E+03
       1     11      7       6        3     5.000E+03
       1     12      7       6        4     5.000E+03
       1     13      7       6        5     2.000E+03
       1     14      9       7        1     5.000E+03
       1     13      8       7        2     5.500E+03
       1     13      7       7        3     5.000E+03
       1     13      6       8        1     5.000E+03
       1     13      5       8        2     5.000E+03
       1     13      4       8        3     5.000E+03
       1     13      3       8        4     5.000E+03
       1     13      2       8        5     5.000E+03
       1     13      1       8        6     3.000E+03






   9 GAGING STATIONS WERE SPECIFIED.
     (Lakes are identified by a negative value of the Lake Number)
     RECORDS WILL BE WRITTEN TO SEPARATE OUTPUT FILES REPRESENTED BY FOLLOWING UNIT NUMBERS:

 Stream Gages:
  GAGE #   SEGMENT   REACH   UNIT   OUTTYPE
       1       1       4      83       4
       2       2       3      84       1
       3       3       5      85       1
       4       4       3      86       1
       5       5       4      87       4
       6       6       5      88       1
       7       7       3      89       4
       8       8       6      90       4
       9       3       1      91       5




1
                            STRESS PERIOD NO.    1, LENGTH =  0.1577880E+10
                            -----------------------------------------------

                              NUMBER OF TIME STEPS =    50

                               MULTIPLIER FOR DELT =     1.100

                            INITIAL TIME STEP SIZE =   1355672.    

 WELL NO.  LAYER   ROW   COL   STRESS RATE         
 --------------------------------------------------
      1      1      6      4      -10.00    
      2      1      6      5      -10.00    
      3      1      7      4      -10.00    
      4      1      7      5      -10.00    
      5      1      8      4      -10.00    
      6      1      8      5      -10.00    
      7      1      9      4      -10.00    
      8      1      9      5      -10.00    
      9      1     10      4      -10.00    
     10      1     10      5      -10.00    

     10 WELLS



                         ET SURFACE
 READING ON UNIT   18 WITH FORMAT: (10F7.0)            

            1           2           3           4           5           6           7           8           9          10
 ........................................................................................................................
   1    1110.       1110.       0.000       0.000       0.000       0.000       0.000       0.000       0.000       0.000    
   2    1110.       1105.       1110.       0.000       0.000       1100.       1100.       1110.       0.000       0.000    
   3    0.000       1100.       1095.       1088.       1085.       1085.       1085.       1090.       0.000       0.000    
   4    1105.       1100.       1090.       1083.       1078.       1075.       1080.       1085.       1100.       0.000    
   5    1105.       1090.       1080.       1077.       1074.       1073.       1074.       1078.       1080.       1085.    
   6    1100.       1080.       1075.       1072.       1071.       1069.       1070.       1075.       1080.       1100.    
   7    1100.       1080.       1070.       1065.       1065.       1065.       1065.       1070.       1090.       0.000    
   8    0.000       1075.       1065.       1059.       1059.       1058.       1063.       1070.       1090.       0.000    
   9    0.000       1065.       1055.       1053.       1053.       1052.       1055.       1065.       1090.       0.000    
  10    0.000       1060.       1046.       1046.       1046.       1046.       1044.       1060.       1088.       1100.    
  11    0.000       1045.       1039.       1040.       1041.       1042.       1040.       1050.       1075.       0.000    
  12    1027.       1028.       1028.       1032.       1032.       1033.       1032.       1040.       1060.       0.000    
  13    997.0       1004.       1008.       1014.       1020.       1027.       1032.       1038.       1050.       0.000    
  14    0.000       1030.       1040.       1045.       1050.       1050.       1050.       1050.       1044.       0.000    
  15    0.000       0.000       1080.       1080.       1080.       1080.       0.000       0.000       0.000       0.000    

  EVAPOTRANSPIRATION RATE =  9.500000E-08

         EXTINCTION DEPTH =   15.0000    

 BOUND. NO. LAYER   ROW   COL     STAGE      CONDUCTANCE         
 ----------------------------------------------------------------
      1      1     13      1       988.0          0.3800E-01
      2      1     14      9       1045.          0.3800E-01

      2 GHB CELLS



                           RECHARGE
 READING ON UNIT   19 WITH FORMAT: (10F4.0)            

            1           2           3           4           5           6           7           8           9          10
 ........................................................................................................................
   1   2.5000E-10  1.0000E-09   0.000       0.000       0.000       0.000       0.000       0.000       0.000       0.000    
   2   1.0000E-09  2.5000E-10  1.0000E-09   0.000       0.000      4.0000E-09  4.0000E-09  4.0000E-09   0.000       0.000    
   3    0.000      1.0000E-09  2.5000E-10  1.0000E-09  1.0000E-09  2.5000E-10  2.5000E-10  2.5000E-10   0.000       0.000    
   4   4.0000E-09  2.5000E-10  2.5000E-10  2.5000E-10  2.5000E-10  2.5000E-10  2.5000E-10  2.5000E-10  1.0000E-09   0.000    
   5   4.0000E-09  2.5000E-10  2.5000E-10  2.5000E-10  2.5000E-10  2.5000E-10  2.5000E-10  2.5000E-10  2.5000E-10  2.5000E-10
   6   1.0000E-09  2.5000E-10  2.5000E-10  2.5000E-10  2.5000E-10  2.5000E-10  2.5000E-10  2.5000E-10  2.5000E-10  1.0000E-09
   7   1.0000E-09  2.5000E-10  2.5000E-10  2.5000E-10  2.5000E-10  2.5000E-10  2.5000E-10  2.5000E-10  1.0000E-09   0.000    
   8    0.000      1.0000E-09  2.5000E-10  2.5000E-10  2.5000E-10  2.5000E-10  2.5000E-10  2.5000E-10  1.0000E-09   0.000    
   9    0.000      1.0000E-09  2.5000E-10  2.5000E-10  2.5000E-10  2.5000E-10  2.5000E-10  2.5000E-10  1.0000E-09   0.000    
  10    0.000      1.0000E-09  2.5000E-10  2.5000E-10  2.5000E-10  2.5000E-10  2.5000E-10  2.5000E-10  2.5000E-10  4.0000E-09
  11    0.000      1.0000E-09  2.5000E-10  2.5000E-10  2.5000E-10  2.5000E-10  2.5000E-10  2.5000E-10  1.0000E-09   0.000    
  12   1.0000E-09  2.5000E-10  2.5000E-10  2.5000E-10  2.5000E-10  2.5000E-10  2.5000E-10  2.5000E-10  1.0000E-09   0.000    
  13   2.5000E-10  2.5000E-10  2.5000E-10  2.5000E-10  2.5000E-10  2.5000E-10  2.5000E-10  2.5000E-10  1.0000E-09   0.000    
  14    0.000      2.5000E-10  2.5000E-10  2.5000E-10  2.5000E-10  2.5000E-10  1.0000E-09  1.0000E-09  2.5000E-10   0.000    
  15    0.000       0.000      1.0000E-09  1.0000E-09  1.0000E-09  1.0000E-09   0.000       0.000       0.000       0.000    



 CLASSIFICATION & COUNT OF STREAM SEGMENTS BASED ON SOURCE OF INFLOW:

                HEADWATER     DIVERSION     RECEIVES TRIBUTARY FLOW
                ---------     ---------     -----------------------
                     3              1               4



                    INPUT DATA FOR EACH STREAM SEGMENT
 ---------------------------------------------------------------------------------------------

 SEGMENT    SEG.     INFLOW   OVERLAND   STREAM    STREAM   ICALC  OUTFLOW  DIVERSION PRIORITY
    NO.    LENGTH     RATE     RUNOFF      ET       PPT.    METH.  TO SEG.  FROM SEG.    NO.

      1  2.305E+04 2.500E+01 0.000E+00 0.000E+00 0.000E+00    4        2        0        0
      2  2.650E+04 0.000E+00 0.000E+00 0.000E+00 0.000E+00    1        6        0        0
      3  2.750E+04 1.000E+01 0.000E+00 0.000E+00 0.000E+00    0        5        1        0
      4  1.100E+04 1.000E+01 0.000E+00 0.000E+00 0.000E+00    1        5        0        0
      5  1.500E+04 0.000E+00 0.000E+00 0.000E+00 0.000E+00    3        6        0        0
      6  2.200E+04 0.000E+00 0.000E+00 0.000E+00 0.000E+00    1        8        0        0
      7  1.550E+04 1.500E+02 0.000E+00 0.000E+00 0.000E+00    2        8        0        0
      8  2.800E+04 0.000E+00 0.000E+00 0.000E+00 0.000E+00    2        0        0        0


         STREAMBED PROPERTIES AND STREAM DIMENSIONS

 SEGMENT     BED HYD. COND.      BED THICKNESS     ELEV.-TOP OF BED     WIDTH OF STREAM     DEPTH OF STREAM    STREAM ROUGHNESS
    No.     UPPER     LOWER     UPPER     LOWER     UPPER     LOWER     UPPER     LOWER     UPPER     LOWER   CHANNEL      BANK

     1  3.000E-05 3.000E-05 3.000E+00 3.000E+00 1.095E+03 1.075E+03
     2  3.000E-05 3.000E-05 3.000E+00 3.000E+00 1.075E+03 1.050E+03 1.200E+01 1.200E+01                     3.000E-02
     3  3.000E-05 3.000E-05 2.000E+00 2.000E+00 1.075E+03 1.060E+03 1.000E+01 6.000E+00 2.000E+00 1.000E+00
     4  3.000E-05 3.000E-05 3.000E+00 3.000E+00 1.080E+03 1.060E+03 1.000E+01 1.000E+01                     3.000E-02
     5  3.000E-05 3.000E-05 3.000E+00 3.000E+00 1.060E+03 1.045E+03
     6  3.000E-05 3.000E-05 3.000E+00 3.000E+00 1.045E+03 1.025E+03 1.200E+01 1.200E+01                     3.000E-02
     7  6.000E-05 6.000E-05 3.000E+00 3.000E+00 1.040E+03 1.025E+03                                         2.500E-02 4.500E-02
     8  6.000E-05 6.000E-05 3.000E+00 3.000E+00 1.025E+03 9.900E+02                                         2.500E-02 4.500E-02

  EIGHT POINT CROSS SECTION DATA FOR SEGMENTS WITH ICALC = 2
    X VALUES X VALUES START FROM LEFT SIDE LOOKING DOWNSTREAM

     SEGMENT NO.        X1        X2        X3        X4        X5        X6        X7        X8
            7      0.000E+00 1.000E+01 8.000E+01 1.000E+02 1.500E+02 1.700E+02 2.400E+02 2.500E+02
            8      0.000E+00 1.000E+01 8.000E+01 1.000E+02 1.500E+02 1.700E+02 2.400E+02 2.500E+02

    Z VALUES ARE RELATIVE TO STREAMBED ELEVATION

     SEGMENT NO.          Z1        Z2        Z3        Z4        Z5        Z6        Z7        Z8
            7      2.000E+01 1.300E+01 1.000E+01 2.000E+00 0.000E+00 1.000E+01 1.300E+01 2.000E+01
            8      2.500E+01 1.700E+01 1.300E+01 4.000E+00 0.000E+00 1.000E+01 1.600E+01 2.000E+01

 STREAMFLOW RELATION WITH DEPTH IS BASED ON EQUATION Q = CDPTH*(DEPTH)**FDPTH
 STREAMFLOW RELATION WITH WIDTH IS BASED ON EQUATION Q = AWDTH*(WIDTH)**BWDTH

 SEGMENT NO.      CDPTH     FDPTH    AWDTH     BWDTH

          5 3.000E-01 3.500E-01 3.800E+00 6.000E-01

 STREAMFLOW RELATION WITH DEPTH AND WIDTH IS BASED ON TABULATED VALUES

  SEGMENT NO.   STREAMFLOW       DEPTH       WIDTH

          1     5.0000E-01   2.5000E-01   3.0000E+00
          1     1.0000E+00   4.0000E-01   3.5000E+00
          1     2.0000E+00   5.5000E-01   4.2000E+00
          1     4.0000E+00   7.0000E-01   5.3000E+00
          1     7.0000E+00   8.0000E-01   7.0000E+00
          1     1.0000E+01   9.0000E-01   8.5000E+00
          1     2.0000E+01   1.1000E+00   1.2000E+01
          1     3.0000E+01   1.2500E+00   1.4000E+01
          1     5.0000E+01   1.4000E+00   1.7000E+01
          1     7.5000E+01   1.7000E+00   2.0000E+01
          1     1.0000E+02   2.6000E+00   2.2000E+01



 
 SOLVING FOR HEAD 

 AVERAGE SEED = 0.00926851
 MINIMUM SEED = 0.00187707

     5 ITERATION PARAMETERS CALCULATED FROM AVERAGE SEED:

  0.000000E+00 0.689721E+00 0.903727E+00 0.970128E+00 0.990731E+00

     6 ITERATIONS FOR TIME STEP   1 IN STRESS PERIOD    1

 MAXIMUM HEAD CHANGE FOR EACH ITERATION:

    HEAD CHANGE   HEAD CHANGE   HEAD CHANGE   HEAD CHANGE   HEAD CHANGE
  LAYER,ROW,COL LAYER,ROW,COL LAYER,ROW,COL LAYER,ROW,COL LAYER,ROW,COL
 ----------------------------------------------------------------------
     -1.862       -0.4428       -0.9350E-01   -0.1903E-01   -0.3834E-02
  (  1,  9,  4) (  1,  8,  4) (  1,  8,  4) (  1,  8,  4) (  1,  8,  5)
    -0.7566E-03
  (  1,  8,  5)


 OUTPUT CONTROL FOR STRESS PERIOD    1   TIME STEP   1
    PRINT BUDGET
    PRINT HEAD FOR ALL LAYERS
    SAVE BUDGET

            WELLS   PERIOD    1   STEP   1
 WELL      1   LAYER   1   ROW     6   COL     4   RATE    -10.0000    
 WELL      2   LAYER   1   ROW     6   COL     5   RATE    -10.0000    
 WELL      3   LAYER   1   ROW     7   COL     4   RATE    -10.0000    
 WELL      4   LAYER   1   ROW     7   COL     5   RATE    -10.0000    
 WELL      5   LAYER   1   ROW     8   COL     4   RATE    -10.0000    
 WELL      6   LAYER   1   ROW     8   COL     5   RATE    -10.0000    
 WELL      7   LAYER   1   ROW     9   COL     4   RATE    -10.0000    
 WELL      8   LAYER   1   ROW     9   COL     5   RATE    -10.0000    
 WELL      9   LAYER   1   ROW    10   COL     4   RATE    -10.0000    
 WELL     10   LAYER   1   ROW    10   COL     5   RATE    -10.0000    
 UBUDSV SAVING "              ET" ON UNIT 59 AT TIME STEP  1, STRESS PERIOD    1

  HEAD DEP BOUNDS   PERIOD    1   STEP   1
 BOUNDARY      1   LAYER   1   ROW    13   COL     1   RATE   -0.247591    
 BOUNDARY      2   LAYER   1   ROW    14   COL     9   RATE    0.215785    



   STREAM LEAKAGE   PERIOD    1   STEP   1

 LAYER ROW COL. STREAM  RCH.  FLOW INTO    FLOW TO  FLOW OUT OF  OVRLND.   DIRECT    STREAM    STREAM    STREAM    STREAM  STREAMBED  STREAMBED
                SEG.NO.  NO.  STRM. RCH.   AQUIFER   STRM. RCH.  RUNOFF    PRECIP      ET       HEAD      DEPTH     WIDTH  CONDCTNC.   GRADIENT

   1    1    1     1     1    2.500E+01   7.777E-01  2.422E+01  0.00E+00  0.00E+00  0.00E+00  1.09E+03  1.17E+00  1.30E+01  5.84E-01  4.44E-01
   1    2    2     1     2    2.422E+01   2.215E+00  2.201E+01  0.00E+00  0.00E+00  0.00E+00  1.09E+03  1.15E+00  1.27E+01  8.88E-01  8.32E-01
   1    3    3     1     3    2.201E+01   2.987E+00  1.902E+01  0.00E+00  0.00E+00  0.00E+00  1.08E+03  1.11E+00  1.21E+01  7.27E-01  1.37E+00
   1    3    4     1     4    1.902E+01   2.549E+00  1.647E+01  0.00E+00  0.00E+00  0.00E+00  1.08E+03  1.06E+00  1.13E+01  6.28E-01  1.35E+00
   1    4    5     2     1    6.471E+00   2.759E+00  3.712E+00  0.00E+00  0.00E+00  0.00E+00  1.07E+03  5.37E-01  1.20E+01  7.80E-01  1.18E+00
   1    5    6     2     2    3.712E+00   2.031E+00  1.681E+00  0.00E+00  0.00E+00  0.00E+00  1.07E+03  3.85E-01  1.20E+01  6.00E-01  1.13E+00
   1    6    6     2     3    1.681E+00   1.681E+00  0.000E+00  0.00E+00  0.00E+00  0.00E+00  1.06E+03  2.39E-01  1.20E+01  6.00E-01  1.08E+00
   1    7    6     2     4    0.000E+00   0.000E+00  0.000E+00  0.00E+00  0.00E+00  0.00E+00  1.06E+03  0.00E+00  1.20E+01  6.00E-01  1.00E+00
   1    8    6     2     5    0.000E+00   0.000E+00  0.000E+00  0.00E+00  0.00E+00  0.00E+00  1.05E+03  0.00E+00  1.20E+01  6.00E-01  1.00E+00
   1    3    5     3     1    1.000E+01   2.203E+00  7.797E+00  0.00E+00  0.00E+00  0.00E+00  1.08E+03  1.91E+00  9.64E+00  7.23E-01  1.52E+00
   1    3    6     3     2    7.797E+00   1.358E+00  6.439E+00  0.00E+00  0.00E+00  0.00E+00  1.07E+03  1.73E+00  8.91E+00  6.68E-01  1.02E+00
   1    3    7     3     3    6.439E+00   4.164E-01  6.023E+00  0.00E+00  0.00E+00  0.00E+00  1.07E+03  1.55E+00  8.22E+00  5.55E-01  3.75E-01
   1    4    8     3     4    6.023E+00   6.120E-01  5.411E+00  0.00E+00  0.00E+00  0.00E+00  1.07E+03  1.36E+00  7.45E+00  6.71E-01  4.56E-01
   1    5    8     3     5    5.411E+00   8.046E-01  4.606E+00  0.00E+00  0.00E+00  0.00E+00  1.06E+03  1.16E+00  6.65E+00  4.99E-01  8.06E-01
   1    6    8     3     6    4.606E+00   4.586E-01  4.148E+00  0.00E+00  0.00E+00  0.00E+00  1.06E+03  1.04E+00  6.15E+00  1.84E-01  1.24E+00
   1    5   10     4     1    1.000E+01   9.096E-01  9.090E+00  0.00E+00  0.00E+00  0.00E+00  1.08E+03  6.39E-01  1.00E+01  2.50E-01  1.21E+00
   1    5    9     4     2    9.090E+00   1.802E+00  7.289E+00  0.00E+00  0.00E+00  0.00E+00  1.07E+03  6.03E-01  1.00E+01  5.00E-01  1.20E+00
   1    6    8     4     3    7.289E+00   1.235E+00  6.054E+00  0.00E+00  0.00E+00  0.00E+00  1.06E+03  5.28E-01  1.00E+01  3.50E-01  1.18E+00
   1    6    8     5     1    1.020E+01  -2.562E-01  1.046E+01  0.00E+00  0.00E+00  0.00E+00  1.06E+03  6.79E-01  1.54E+01  6.17E-01 -1.38E-01
   1    7    7     5     2    1.046E+01   7.760E-01  9.682E+00  0.00E+00  0.00E+00  0.00E+00  1.05E+03  6.73E-01  1.52E+01  7.60E-01  3.41E-01
   1    8    7     5     3    9.682E+00   1.074E+00  8.608E+00  0.00E+00  0.00E+00  0.00E+00  1.05E+03  6.51E-01  1.43E+01  5.02E-01  7.13E-01
   1    8    6     5     4    8.608E+00   2.602E-01  8.348E+00  0.00E+00  0.00E+00  0.00E+00  1.05E+03  6.34E-01  1.37E+01  3.43E-01  2.53E-01
   1    9    6     6     1    8.348E+00   1.585E+00  6.763E+00  0.00E+00  0.00E+00  0.00E+00  1.04E+03  5.96E-01  1.20E+01  6.00E-01  8.80E-01
   1   10    7     6     2    6.763E+00   1.351E+00  5.412E+00  0.00E+00  0.00E+00  0.00E+00  1.04E+03  5.23E-01  1.20E+01  6.00E-01  7.51E-01
   1   11    7     6     3    5.412E+00   1.206E+00  4.206E+00  0.00E+00  0.00E+00  0.00E+00  1.03E+03  4.54E-01  1.20E+01  6.00E-01  6.70E-01
   1   12    7     6     4    4.206E+00   5.456E-01  3.660E+00  0.00E+00  0.00E+00  0.00E+00  1.03E+03  4.03E-01  1.20E+01  6.00E-01  3.03E-01
   1   13    7     6     5    3.660E+00  -6.674E-01  4.328E+00  0.00E+00  0.00E+00  0.00E+00  1.03E+03  4.06E-01  1.20E+01  2.40E-01 -9.27E-01
   1   14    9     7     1    1.500E+02   3.033E+00  1.470E+02  0.00E+00  0.00E+00  0.00E+00  1.04E+03  2.28E+00  5.53E+01  5.59E+00  1.81E-01
   1   13    8     7     2    1.470E+02   4.064E+00  1.429E+02  0.00E+00  0.00E+00  0.00E+00  1.03E+03  2.26E+00  5.52E+01  6.14E+00  2.21E-01
   1   13    7     7     3    1.429E+02   3.164E+00  1.397E+02  0.00E+00  0.00E+00  0.00E+00  1.03E+03  2.24E+00  5.51E+01  5.57E+00  1.89E-01
   1   13    6     8     1    1.441E+02   1.510E+00  1.426E+02  0.00E+00  0.00E+00  0.00E+00  1.02E+03  2.77E+00  4.02E+01  4.09E+00  1.23E-01
   1   13    5     8     2    1.426E+02  -1.240E+00  1.438E+02  0.00E+00  0.00E+00  0.00E+00  1.02E+03  2.77E+00  4.01E+01  4.09E+00 -1.01E-01
   1   13    4     8     3    1.438E+02  -2.983E+00  1.468E+02  0.00E+00  0.00E+00  0.00E+00  1.01E+03  2.78E+00  4.04E+01  4.11E+00 -2.42E-01
   1   13    3     8     4    1.468E+02  -3.106E+00  1.499E+02  0.00E+00  0.00E+00  0.00E+00  1.01E+03  2.81E+00  4.07E+01  4.14E+00 -2.50E-01
   1   13    2     8     5    1.499E+02  -1.177E+00  1.511E+02  0.00E+00  0.00E+00  0.00E+00  1.00E+03  2.82E+00  4.09E+01  4.17E+00 -9.41E-02
   1   13    1     8     6    1.511E+02   4.561E-01  1.506E+02  0.00E+00  0.00E+00  0.00E+00  9.95E+02  2.82E+00  4.09E+01  2.50E+00  6.08E-02



1
              HEAD IN LAYER   1 AT END OF TIME STEP   1 IN STRESS PERIOD    1
  ---------------------------------------------------------------------------

           1       2       3       4       5       6       7       8       9      10
 ...................................................................................
   1  1092.89 1089.40 6999.00 6999.00 6999.00 6999.00 6999.00 6999.00 6999.00 6999.00
   2  1089.90 1086.71 1081.41 6999.00 6999.00 1072.27 1071.48 1071.08 6999.00 6999.00
   3  6999.00 1079.40 1077.52 1073.59 1072.50 1070.60 1069.12 1068.33 6999.00 6999.00
   4  1069.09 1070.68 1070.19 1066.97 1065.43 1063.60 1063.89 1065.91 1066.09 6999.00
   5  1064.89 1063.90 1062.85 1061.15 1060.50 1060.70 1060.19 1062.01 1065.69 1068.10
   6  1059.80 1058.29 1056.94 1054.27 1054.34 1056.58 1057.16 1059.09 1061.90 1065.60
   7  1056.10 1052.99 1051.42 1048.80 1049.10 1051.52 1053.15 1055.48 1056.50 6999.00
   8  6999.00 1046.29 1045.44 1043.08 1043.57 1046.12 1047.76 1049.89 1050.40 6999.00
   9  6999.00 1039.08 1038.85 1037.09 1037.86 1040.68 1041.56 1042.89 1044.00 6999.00
  10  6999.00 1031.09 1031.59 1031.16 1032.39 1035.11 1036.45 1037.60 1039.30 1041.60
  11  6999.00 1021.40 1023.06 1026.51 1028.40 1030.42 1032.08 1033.59 1035.70 6999.00
  12  1001.20 1009.21 1014.50 1019.56 1023.07 1026.18 1028.58 1030.40 1034.30 6999.00
  13   994.52  999.98 1006.68 1012.88 1018.70 1024.28 1029.10 1034.10 1036.10 6999.00
  14  6999.00 1004.00 1008.99 1013.70 1018.90 1024.01 1029.50 1035.10 1039.32 6999.00
  15  6999.00 6999.00 1011.90 1015.10 1019.10 1022.40 6999.00 6999.00 6999.00 6999.00
1
  VOLUMETRIC BUDGET FOR ENTIRE MODEL AT END OF TIME STEP  1 IN STRESS PERIOD   1
  ------------------------------------------------------------------------------

     CUMULATIVE VOLUMES      L**3       RATES FOR THIS TIME STEP      L**3/T
     ------------------                 ------------------------

           IN:                                      IN:
           ---                                      ---
             STORAGE =   132175136.0000               STORAGE =          97.4979
       CONSTANT HEAD =           0.0000         CONSTANT HEAD =           0.0000
               WELLS =           0.0000                 WELLS =           0.0000
                  ET =           0.0000                    ET =           0.0000
     HEAD DEP BOUNDS =      292534.0620       HEAD DEP BOUNDS =           0.2158
            RECHARGE =     2431736.7500              RECHARGE =           1.7937
      STREAM LEAKAGE =    59408236.0000        STREAM LEAKAGE =          43.8220

            TOTAL IN =   194307648.0000              TOTAL IN =         143.3294

          OUT:                                     OUT:
          ----                                     ----
             STORAGE =      739746.1250               STORAGE =           0.5457
       CONSTANT HEAD =           0.0000         CONSTANT HEAD =           0.0000
               WELLS =   135567216.0000                 WELLS =         100.0000
                  ET =    44908460.0000                    ET =          33.1263
     HEAD DEP BOUNDS =      335652.7190       HEAD DEP BOUNDS =           0.2476
            RECHARGE =           0.0000              RECHARGE =           0.0000
      STREAM LEAKAGE =    12783134.0000        STREAM LEAKAGE =           9.4294

           TOTAL OUT =   194334208.0000             TOTAL OUT =         143.3490

            IN - OUT =      -26566.0312              IN - OUT =      -1.9593E-02

 PERCENT DISCREPANCY =          -0.01     PERCENT DISCREPANCY =          -0.01






          TIME SUMMARY AT END OF TIME STEP   1 IN STRESS PERIOD    1
                    SECONDS     MINUTES      HOURS       DAYS        YEARS
                    -----------------------------------------------------------
   TIME STEP LENGTH 1.35567E+06  22595.      376.58      15.691     4.29587E-02
 STRESS PERIOD TIME 1.35567E+06  22595.      376.58      15.691     4.29587E-02
         TOTAL TIME 1.35567E+06  22595.      376.58      15.691     4.29587E-02
1
 
 SOLVING FOR HEAD 
     6 ITERATIONS FOR TIME STEP   2 IN STRESS PERIOD    1

 MAXIMUM HEAD CHANGE FOR EACH ITERATION:

    HEAD CHANGE   HEAD CHANGE   HEAD CHANGE   HEAD CHANGE   HEAD CHANGE
  LAYER,ROW,COL LAYER,ROW,COL LAYER,ROW,COL LAYER,ROW,COL LAYER,ROW,COL
 ----------------------------------------------------------------------
     -1.866       -0.4287       -0.8996E-01   -0.1848E-01   -0.3705E-02
  (  1,  8,  4) (  1,  8,  4) (  1,  8,  4) (  1,  8,  4) (  1,  8,  4)
    -0.7244E-03
  (  1,  8,  4)


 NO OUTPUT CONTROL FOR STRESS PERIOD    1   TIME STEP   2
 
 SOLVING FOR HEAD 
     6 ITERATIONS FOR TIME STEP   3 IN STRESS PERIOD    1

 MAXIMUM HEAD CHANGE FOR EACH ITERATION:

    HEAD CHANGE   HEAD CHANGE   HEAD CHANGE   HEAD CHANGE   HEAD CHANGE
  LAYER,ROW,COL LAYER,ROW,COL LAYER,ROW,COL LAYER,ROW,COL LAYER,ROW,COL
 ----------------------------------------------------------------------
     -1.819       -0.4241       -0.9004E-01   -0.1862E-01   -0.3751E-02
  (  1,  8,  4) (  1,  8,  4) (  1,  8,  4) (  1,  8,  4) (  1,  8,  4)
    -0.7335E-03
  (  1,  8,  4)


 NO OUTPUT CONTROL FOR STRESS PERIOD    1   TIME STEP   3
 
 SOLVING FOR HEAD 
     6 ITERATIONS FOR TIME STEP   4 IN STRESS PERIOD    1

 MAXIMUM HEAD CHANGE FOR EACH ITERATION:

    HEAD CHANGE   HEAD CHANGE   HEAD CHANGE   HEAD CHANGE   HEAD CHANGE
  LAYER,ROW,COL LAYER,ROW,COL LAYER,ROW,COL LAYER,ROW,COL LAYER,ROW,COL
 ----------------------------------------------------------------------
     -1.751       -0.4169       -0.8959E-01   -0.1870E-01   -0.3786E-02
  (  1,  8,  4) (  1,  8,  4) (  1,  8,  4) (  1,  8,  4) (  1,  8,  4)
    -0.7387E-03
  (  1,  8,  4)


 NO OUTPUT CONTROL FOR STRESS PERIOD    1   TIME STEP   4
 
 SOLVING FOR HEAD 
     6 ITERATIONS FOR TIME STEP   5 IN STRESS PERIOD    1

 MAXIMUM HEAD CHANGE FOR EACH ITERATION:

    HEAD CHANGE   HEAD CHANGE   HEAD CHANGE   HEAD CHANGE   HEAD CHANGE
  LAYER,ROW,COL LAYER,ROW,COL LAYER,ROW,COL LAYER,ROW,COL LAYER,ROW,COL
 ----------------------------------------------------------------------
     -1.671       -0.4089       -0.8933E-01   -0.1877E-01   -0.3819E-02
  (  1,  8,  4) (  1,  8,  4) (  1,  8,  4) (  1,  8,  4) (  1,  8,  4)
    -0.7428E-03
  (  1,  8,  4)


 OUTPUT CONTROL FOR STRESS PERIOD    1   TIME STEP   5
    PRINT BUDGET
    PRINT HEAD FOR ALL LAYERS
    SAVE BUDGET

            WELLS   PERIOD    1   STEP   5
 WELL      1   LAYER   1   ROW     6   COL     4   RATE    -10.0000    
 WELL      2   LAYER   1   ROW     6   COL     5   RATE    -10.0000    
 WELL      3   LAYER   1   ROW     7   COL     4   RATE    -10.0000    
 WELL      4   LAYER   1   ROW     7   COL     5   RATE    -10.0000    
 WELL      5   LAYER   1   ROW     8   COL     4   RATE    -10.0000    
 WELL      6   LAYER   1   ROW     8   COL     5   RATE    -10.0000    
 WELL      7   LAYER   1   ROW     9   COL     4   RATE    -10.0000    
 WELL      8   LAYER   1   ROW     9   COL     5   RATE    -10.0000    
 WELL      9   LAYER   1   ROW    10   COL     4   RATE    -10.0000    
 WELL     10   LAYER   1   ROW    10   COL     5   RATE    -10.0000    
 UBUDSV SAVING "              ET" ON UNIT 59 AT TIME STEP  5, STRESS PERIOD    1

  HEAD DEP BOUNDS   PERIOD    1   STEP   5
 BOUNDARY      1   LAYER   1   ROW    13   COL     1   RATE   -0.247344    
 BOUNDARY      2   LAYER   1   ROW    14   COL     9   RATE    0.215279    



   STREAM LEAKAGE   PERIOD    1   STEP   5

 LAYER ROW COL. STREAM  RCH.  FLOW INTO    FLOW TO  FLOW OUT OF  OVRLND.   DIRECT    STREAM    STREAM    STREAM    STREAM  STREAMBED  STREAMBED
                SEG.NO.  NO.  STRM. RCH.   AQUIFER   STRM. RCH.  RUNOFF    PRECIP      ET       HEAD      DEPTH     WIDTH  CONDCTNC.   GRADIENT

   1    1    1     1     1    2.500E+01   7.912E-01  2.421E+01  0.00E+00  0.00E+00  0.00E+00  1.09E+03  1.17E+00  1.30E+01  5.84E-01  4.51E-01
   1    2    2     1     2    2.421E+01   2.190E+00  2.202E+01  0.00E+00  0.00E+00  0.00E+00  1.09E+03  1.15E+00  1.27E+01  8.88E-01  8.22E-01
   1    3    3     1     3    2.202E+01   2.988E+00  1.903E+01  0.00E+00  0.00E+00  0.00E+00  1.08E+03  1.11E+00  1.21E+01  7.27E-01  1.37E+00
   1    3    4     1     4    1.903E+01   2.550E+00  1.648E+01  0.00E+00  0.00E+00  0.00E+00  1.08E+03  1.06E+00  1.13E+01  6.28E-01  1.35E+00
   1    4    5     2     1    6.481E+00   2.759E+00  3.722E+00  0.00E+00  0.00E+00  0.00E+00  1.07E+03  5.37E-01  1.20E+01  7.80E-01  1.18E+00
   1    5    6     2     2    3.722E+00   2.031E+00  1.691E+00  0.00E+00  0.00E+00  0.00E+00  1.07E+03  3.85E-01  1.20E+01  6.00E-01  1.13E+00
   1    6    6     2     3    1.691E+00   1.691E+00  0.000E+00  0.00E+00  0.00E+00  0.00E+00  1.06E+03  2.40E-01  1.20E+01  6.00E-01  1.08E+00
   1    7    6     2     4    0.000E+00   0.000E+00  0.000E+00  0.00E+00  0.00E+00  0.00E+00  1.06E+03  0.00E+00  1.20E+01  6.00E-01  1.00E+00
   1    8    6     2     5    0.000E+00   0.000E+00  0.000E+00  0.00E+00  0.00E+00  0.00E+00  1.05E+03  0.00E+00  1.20E+01  6.00E-01  1.00E+00
   1    3    5     3     1    1.000E+01   2.324E+00  7.676E+00  0.00E+00  0.00E+00  0.00E+00  1.08E+03  1.91E+00  9.64E+00  7.23E-01  1.61E+00
   1    3    6     3     2    7.676E+00   1.406E+00  6.270E+00  0.00E+00  0.00E+00  0.00E+00  1.07E+03  1.73E+00  8.91E+00  6.68E-01  1.05E+00
   1    3    7     3     3    6.270E+00   4.077E-01  5.863E+00  0.00E+00  0.00E+00  0.00E+00  1.07E+03  1.55E+00  8.22E+00  5.55E-01  3.68E-01
   1    4    8     3     4    5.863E+00   6.209E-01  5.242E+00  0.00E+00  0.00E+00  0.00E+00  1.07E+03  1.36E+00  7.45E+00  6.71E-01  4.63E-01
   1    5    8     3     5    5.242E+00   8.762E-01  4.365E+00  0.00E+00  0.00E+00  0.00E+00  1.06E+03  1.16E+00  6.65E+00  4.99E-01  8.78E-01
   1    6    8     3     6    4.365E+00   5.025E-01  3.863E+00  0.00E+00  0.00E+00  0.00E+00  1.06E+03  1.04E+00  6.15E+00  1.84E-01  1.36E+00
   1    5   10     4     1    1.000E+01   9.096E-01  9.090E+00  0.00E+00  0.00E+00  0.00E+00  1.08E+03  6.39E-01  1.00E+01  2.50E-01  1.21E+00
   1    5    9     4     2    9.090E+00   1.802E+00  7.289E+00  0.00E+00  0.00E+00  0.00E+00  1.07E+03  6.03E-01  1.00E+01  5.00E-01  1.20E+00
   1    6    8     4     3    7.289E+00   1.235E+00  6.054E+00  0.00E+00  0.00E+00  0.00E+00  1.06E+03  5.28E-01  1.00E+01  3.50E-01  1.18E+00
   1    6    8     5     1    9.917E+00  -1.119E-01  1.003E+01  0.00E+00  0.00E+00  0.00E+00  1.06E+03  6.71E-01  1.51E+01  6.04E-01 -6.17E-02
   1    7    7     5     2    1.003E+01   1.426E+00  8.603E+00  0.00E+00  0.00E+00  0.00E+00  1.05E+03  6.55E-01  1.45E+01  7.25E-01  6.55E-01
   1    8    7     5     3    8.603E+00   1.484E+00  7.120E+00  0.00E+00  0.00E+00  0.00E+00  1.05E+03  6.17E-01  1.31E+01  4.58E-01  1.08E+00
   1    8    6     5     4    7.120E+00   1.055E+00  6.065E+00  0.00E+00  0.00E+00  0.00E+00  1.05E+03  5.80E-01  1.18E+01  2.95E-01  1.19E+00
   1    9    6     6     1    6.065E+00   2.113E+00  3.952E+00  0.00E+00  0.00E+00  0.00E+00  1.04E+03  5.22E-01  1.20E+01  6.00E-01  1.17E+00
   1   10    7     6     2    3.952E+00   1.756E+00  2.196E+00  0.00E+00  0.00E+00  0.00E+00  1.04E+03  3.47E-01  1.20E+01  6.00E-01  9.75E-01
   1   11    7     6     3    2.196E+00   1.348E+00  8.484E-01  0.00E+00  0.00E+00  0.00E+00  1.03E+03  2.28E-01  1.20E+01  6.00E-01  7.49E-01
   1   12    7     6     4    8.484E-01   5.143E-01  3.341E-01  0.00E+00  0.00E+00  0.00E+00  1.03E+03  1.29E-01  1.20E+01  6.00E-01  2.86E-01
   1   13    7     6     5    3.341E-01  -7.235E-01  1.058E+00  0.00E+00  0.00E+00  0.00E+00  1.03E+03  1.42E-01  1.20E+01  2.40E-01 -1.00E+00
   1   14    9     7     1    1.500E+02   2.960E+00  1.470E+02  0.00E+00  0.00E+00  0.00E+00  1.04E+03  2.28E+00  5.53E+01  5.59E+00  1.76E-01
   1   13    8     7     2    1.470E+02   4.070E+00  1.430E+02  0.00E+00  0.00E+00  0.00E+00  1.03E+03  2.26E+00  5.52E+01  6.14E+00  2.21E-01
   1   13    7     7     3    1.430E+02   3.331E+00  1.396E+02  0.00E+00  0.00E+00  0.00E+00  1.03E+03  2.24E+00  5.51E+01  5.57E+00  1.99E-01
   1   13    6     8     1    1.407E+02   1.741E+00  1.390E+02  0.00E+00  0.00E+00  0.00E+00  1.02E+03  2.74E+00  3.98E+01  4.05E+00  1.43E-01
   1   13    5     8     2    1.390E+02  -8.799E-01  1.398E+02  0.00E+00  0.00E+00  0.00E+00  1.02E+03  2.74E+00  3.97E+01  4.05E+00 -7.24E-02
   1   13    4     8     3    1.398E+02  -2.617E+00  1.425E+02  0.00E+00  0.00E+00  0.00E+00  1.01E+03  2.75E+00  3.99E+01  4.07E+00 -2.14E-01
   1   13    3     8     4    1.425E+02  -2.951E+00  1.454E+02  0.00E+00  0.00E+00  0.00E+00  1.01E+03  2.77E+00  4.02E+01  4.10E+00 -2.40E-01
   1   13    2     8     5    1.454E+02  -1.127E+00  1.465E+02  0.00E+00  0.00E+00  0.00E+00  1.00E+03  2.79E+00  4.04E+01  4.12E+00 -9.12E-02
   1   13    1     8     6    1.465E+02   3.879E-01  1.461E+02  0.00E+00  0.00E+00  0.00E+00  9.95E+02  2.79E+00  4.05E+01  2.47E+00  5.23E-02



1
              HEAD IN LAYER   1 AT END OF TIME STEP   5 IN STRESS PERIOD    1
  ---------------------------------------------------------------------------

           1       2       3       4       5       6       7       8       9      10
 ...................................................................................
   1  1092.87 1089.42 6999.00 6999.00 6999.00 6999.00 6999.00 6999.00 6999.00 6999.00
   2  1089.89 1086.74 1081.42 6999.00 6999.00 1072.13 1071.37 1070.99 6999.00 6999.00
   3  6999.00 1079.40 1077.45 1073.29 1072.33 1070.53 1069.14 1068.41 6999.00 6999.00
   4  1069.01 1070.57 1069.81 1065.95 1064.45 1063.01 1063.67 1065.89 1066.04 6999.00
   5  1064.84 1063.71 1061.67 1058.19 1057.97 1059.39 1059.66 1061.86 1065.65 1068.11
   6  1059.76 1057.83 1054.16 1047.44 1048.48 1054.02 1056.29 1058.86 1061.87 1065.59
   7  1056.07 1052.41 1047.97 1040.14 1041.73 1048.28 1052.19 1055.15 1056.46 6999.00
   8  6999.00 1045.75 1041.99 1033.85 1035.83 1042.92 1046.63 1049.64 1050.39 6999.00
   9  6999.00 1038.57 1035.63 1028.28 1030.63 1037.67 1040.42 1042.66 1044.00 6999.00
  10  6999.00 1030.73 1029.19 1024.24 1026.70 1032.66 1035.60 1037.44 1039.29 1041.59
  11  6999.00 1021.28 1022.13 1023.80 1026.02 1029.21 1031.62 1033.48 1035.70 6999.00
  12  1001.18 1009.18 1014.22 1018.78 1022.32 1025.73 1028.36 1030.35 1034.29 6999.00
  13   994.51  999.94 1006.62 1012.77 1018.58 1024.19 1029.07 1034.10 1036.12 6999.00
  14  6999.00 1004.00 1008.97 1013.69 1018.87 1024.01 1029.48 1035.09 1039.33 6999.00
  15  6999.00 6999.00 1011.91 1015.10 1019.11 1022.39 6999.00 6999.00 6999.00 6999.00
1
  VOLUMETRIC BUDGET FOR ENTIRE MODEL AT END OF TIME STEP  5 IN STRESS PERIOD   1
  ------------------------------------------------------------------------------

     CUMULATIVE VOLUMES      L**3       RATES FOR THIS TIME STEP      L**3/T
     ------------------                 ------------------------

           IN:                                      IN:
           ---                                      ---
             STORAGE =   762100224.0000               STORAGE =          87.3116
       CONSTANT HEAD =           0.0000         CONSTANT HEAD =           0.0000
               WELLS =           0.0000                 WELLS =           0.0000
                  ET =           0.0000                    ET =           0.0000
     HEAD DEP BOUNDS =     1782862.6200       HEAD DEP BOUNDS =           0.2153
            RECHARGE =    14845997.0000              RECHARGE =           1.7937
      STREAM LEAKAGE =   377564288.0000        STREAM LEAKAGE =          47.2674

            TOTAL IN =  1156293380.0000              TOTAL IN =         136.5880

          OUT:                                     OUT:
          ----                                     ----
             STORAGE =     1696472.2500               STORAGE =       5.0277E-02
       CONSTANT HEAD =           0.0000         CONSTANT HEAD =           0.0000
               WELLS =   827651456.0000                 WELLS =         100.0000
                  ET =   251015824.0000                    ET =          27.9070
     HEAD DEP BOUNDS =     2049445.8800       HEAD DEP BOUNDS =           0.2473
            RECHARGE =           0.0000              RECHARGE =           0.0000
      STREAM LEAKAGE =    74050136.0000        STREAM LEAKAGE =           8.4101

           TOTAL OUT =  1156463360.0000             TOTAL OUT =         136.6147

            IN - OUT =     -169962.5000              IN - OUT =      -2.6702E-02

 PERCENT DISCREPANCY =          -0.01     PERCENT DISCREPANCY =          -0.02






          TIME SUMMARY AT END OF TIME STEP   5 IN STRESS PERIOD    1
                    SECONDS     MINUTES      HOURS       DAYS        YEARS
                    -----------------------------------------------------------
   TIME STEP LENGTH 1.98484E+06  33081.      551.34      22.973     6.28958E-02
 STRESS PERIOD TIME 8.27652E+06 1.37942E+05  2299.0      95.793     0.26227    
         TOTAL TIME 8.27652E+06 1.37942E+05  2299.0      95.793     0.26227    
1
 
 SOLVING FOR HEAD 
     7 ITERATIONS FOR TIME STEP   6 IN STRESS PERIOD    1

 MAXIMUM HEAD CHANGE FOR EACH ITERATION:

    HEAD CHANGE   HEAD CHANGE   HEAD CHANGE   HEAD CHANGE   HEAD CHANGE
  LAYER,ROW,COL LAYER,ROW,COL LAYER,ROW,COL LAYER,ROW,COL LAYER,ROW,COL
 ----------------------------------------------------------------------
     -1.592       -0.4016       -0.8949E-01   -0.1897E-01   -0.6056E-02
  (  1,  8,  4) (  1,  8,  4) (  1,  8,  4) (  1,  8,  4) (  1, 12,  7)
    -0.1774E-02   -0.4500E-03
  (  1, 12,  7) (  1, 12,  7)


 NO OUTPUT CONTROL FOR STRESS PERIOD    1   TIME STEP   6
 
 SOLVING FOR HEAD 
     7 ITERATIONS FOR TIME STEP   7 IN STRESS PERIOD    1

 MAXIMUM HEAD CHANGE FOR EACH ITERATION:

    HEAD CHANGE   HEAD CHANGE   HEAD CHANGE   HEAD CHANGE   HEAD CHANGE
  LAYER,ROW,COL LAYER,ROW,COL LAYER,ROW,COL LAYER,ROW,COL LAYER,ROW,COL
 ----------------------------------------------------------------------
     -1.517       -0.3965       -0.9027E-01   -0.1932E-01   -0.4789E-02
  (  1,  8,  4) (  1,  8,  4) (  1,  8,  4) (  1,  8,  4) (  1, 11,  7)
    -0.1153E-02   -0.3065E-03
  (  1, 11,  7) (  1, 11,  7)


 NO OUTPUT CONTROL FOR STRESS PERIOD    1   TIME STEP   7
 
 SOLVING FOR HEAD 
     7 ITERATIONS FOR TIME STEP   8 IN STRESS PERIOD    1

 MAXIMUM HEAD CHANGE FOR EACH ITERATION:

    HEAD CHANGE   HEAD CHANGE   HEAD CHANGE   HEAD CHANGE   HEAD CHANGE
  LAYER,ROW,COL LAYER,ROW,COL LAYER,ROW,COL LAYER,ROW,COL LAYER,ROW,COL
 ----------------------------------------------------------------------
     -1.450       -0.3941       -0.9229E-01   -0.2004E-01   -0.5392E-02
  (  1,  8,  4) (  1,  8,  4) (  1,  8,  5) (  1,  8,  5) (  1, 11,  7)
    -0.1347E-02   -0.3991E-03
  (  1, 11,  7) (  1, 11,  7)


 NO OUTPUT CONTROL FOR STRESS PERIOD    1   TIME STEP   8
 
 SOLVING FOR HEAD 
     6 ITERATIONS FOR TIME STEP   9 IN STRESS PERIOD    1

 MAXIMUM HEAD CHANGE FOR EACH ITERATION:

    HEAD CHANGE   HEAD CHANGE   HEAD CHANGE   HEAD CHANGE   HEAD CHANGE
  LAYER,ROW,COL LAYER,ROW,COL LAYER,ROW,COL LAYER,ROW,COL LAYER,ROW,COL
 ----------------------------------------------------------------------
     -1.392       -0.3949       -0.9659E-01   -0.2134E-01   -0.4509E-02
  (  1,  8,  4) (  1,  8,  4) (  1,  8,  5) (  1,  8,  5) (  1,  8,  5)
    -0.9288E-03
  (  1, 11,  7)


 NO OUTPUT CONTROL FOR STRESS PERIOD    1   TIME STEP   9
 
 SOLVING FOR HEAD 
     7 ITERATIONS FOR TIME STEP  10 IN STRESS PERIOD    1

 MAXIMUM HEAD CHANGE FOR EACH ITERATION:

    HEAD CHANGE   HEAD CHANGE   HEAD CHANGE   HEAD CHANGE   HEAD CHANGE
  LAYER,ROW,COL LAYER,ROW,COL LAYER,ROW,COL LAYER,ROW,COL LAYER,ROW,COL
 ----------------------------------------------------------------------
     -1.343       -0.3991       -0.1033       -0.2298E-01   -0.5085E-02
  (  1,  8,  4) (  1,  8,  4) (  1,  8,  5) (  1,  8,  5) (  1, 10,  7)
    -0.1164E-02   -0.3306E-03
  (  1, 10,  7) (  1, 10,  7)


 OUTPUT CONTROL FOR STRESS PERIOD    1   TIME STEP  10
    PRINT BUDGET
    PRINT HEAD FOR ALL LAYERS
    SAVE BUDGET

            WELLS   PERIOD    1   STEP  10
 WELL      1   LAYER   1   ROW     6   COL     4   RATE    -10.0000    
 WELL      2   LAYER   1   ROW     6   COL     5   RATE    -10.0000    
 WELL      3   LAYER   1   ROW     7   COL     4   RATE    -10.0000    
 WELL      4   LAYER   1   ROW     7   COL     5   RATE    -10.0000    
 WELL      5   LAYER   1   ROW     8   COL     4   RATE    -10.0000    
 WELL      6   LAYER   1   ROW     8   COL     5   RATE    -10.0000    
 WELL      7   LAYER   1   ROW     9   COL     4   RATE    -10.0000    
 WELL      8   LAYER   1   ROW     9   COL     5   RATE    -10.0000    
 WELL      9   LAYER   1   ROW    10   COL     4   RATE    -10.0000    
 WELL     10   LAYER   1   ROW    10   COL     5   RATE    -10.0000    
 UBUDSV SAVING "              ET" ON UNIT 59 AT TIME STEP 10, STRESS PERIOD    1

  HEAD DEP BOUNDS   PERIOD    1   STEP  10
 BOUNDARY      1   LAYER   1   ROW    13   COL     1   RATE   -0.245866    
 BOUNDARY      2   LAYER   1   ROW    14   COL     9   RATE    0.215280    



   STREAM LEAKAGE   PERIOD    1   STEP  10

 LAYER ROW COL. STREAM  RCH.  FLOW INTO    FLOW TO  FLOW OUT OF  OVRLND.   DIRECT    STREAM    STREAM    STREAM    STREAM  STREAMBED  STREAMBED
                SEG.NO.  NO.  STRM. RCH.   AQUIFER   STRM. RCH.  RUNOFF    PRECIP      ET       HEAD      DEPTH     WIDTH  CONDCTNC.   GRADIENT

   1    1    1     1     1    2.500E+01   7.980E-01  2.420E+01  0.00E+00  0.00E+00  0.00E+00  1.09E+03  1.17E+00  1.30E+01  5.84E-01  4.55E-01
   1    2    2     1     2    2.420E+01   2.251E+00  2.195E+01  0.00E+00  0.00E+00  0.00E+00  1.09E+03  1.15E+00  1.27E+01  8.87E-01  8.46E-01
   1    3    3     1     3    2.195E+01   2.983E+00  1.897E+01  0.00E+00  0.00E+00  0.00E+00  1.08E+03  1.11E+00  1.21E+01  7.26E-01  1.37E+00
   1    3    4     1     4    1.897E+01   2.545E+00  1.642E+01  0.00E+00  0.00E+00  0.00E+00  1.08E+03  1.06E+00  1.13E+01  6.27E-01  1.35E+00
   1    4    5     2     1    6.423E+00   2.757E+00  3.666E+00  0.00E+00  0.00E+00  0.00E+00  1.07E+03  5.34E-01  1.20E+01  7.80E-01  1.18E+00
   1    5    6     2     2    3.666E+00   2.029E+00  1.637E+00  0.00E+00  0.00E+00  0.00E+00  1.07E+03  3.82E-01  1.20E+01  6.00E-01  1.13E+00
   1    6    6     2     3    1.637E+00   1.637E+00  0.000E+00  0.00E+00  0.00E+00  0.00E+00  1.06E+03  2.35E-01  1.20E+01  6.00E-01  1.08E+00
   1    7    6     2     4    0.000E+00   0.000E+00  0.000E+00  0.00E+00  0.00E+00  0.00E+00  1.06E+03  0.00E+00  1.20E+01  6.00E-01  1.00E+00
   1    8    6     2     5    0.000E+00   0.000E+00  0.000E+00  0.00E+00  0.00E+00  0.00E+00  1.05E+03  0.00E+00  1.20E+01  6.00E-01  1.00E+00
   1    3    5     3     1    1.000E+01   2.825E+00  7.175E+00  0.00E+00  0.00E+00  0.00E+00  1.08E+03  1.91E+00  9.64E+00  7.23E-01  1.95E+00
   1    3    6     3     2    7.175E+00   1.691E+00  5.484E+00  0.00E+00  0.00E+00  0.00E+00  1.07E+03  1.73E+00  8.91E+00  6.68E-01  1.27E+00
   1    3    7     3     3    5.484E+00   5.142E-01  4.969E+00  0.00E+00  0.00E+00  0.00E+00  1.07E+03  1.55E+00  8.22E+00  5.55E-01  4.63E-01
   1    4    8     3     4    4.969E+00   7.717E-01  4.198E+00  0.00E+00  0.00E+00  0.00E+00  1.07E+03  1.36E+00  7.45E+00  6.71E-01  5.75E-01
   1    5    8     3     5    4.198E+00   1.333E+00  2.865E+00  0.00E+00  0.00E+00  0.00E+00  1.06E+03  1.16E+00  6.65E+00  4.99E-01  1.34E+00
   1    6    8     3     6    2.865E+00   5.598E-01  2.305E+00  0.00E+00  0.00E+00  0.00E+00  1.06E+03  1.04E+00  6.15E+00  1.84E-01  1.52E+00
   1    5   10     4     1    1.000E+01   9.096E-01  9.090E+00  0.00E+00  0.00E+00  0.00E+00  1.08E+03  6.39E-01  1.00E+01  2.50E-01  1.21E+00
   1    5    9     4     2    9.090E+00   1.802E+00  7.289E+00  0.00E+00  0.00E+00  0.00E+00  1.07E+03  6.03E-01  1.00E+01  5.00E-01  1.20E+00
   1    6    8     4     3    7.289E+00   1.235E+00  6.054E+00  0.00E+00  0.00E+00  0.00E+00  1.06E+03  5.28E-01  1.00E+01  3.50E-01  1.18E+00
   1    6    8     5     1    8.359E+00   5.398E-01  7.819E+00  0.00E+00  0.00E+00  0.00E+00  1.06E+03  6.24E-01  1.33E+01  5.33E-01  3.38E-01
   1    7    7     5     2    7.819E+00   2.142E+00  5.677E+00  0.00E+00  0.00E+00  0.00E+00  1.05E+03  5.85E-01  1.19E+01  5.97E-01  1.20E+00
   1    8    7     5     3    5.677E+00   1.241E+00  4.436E+00  0.00E+00  0.00E+00  0.00E+00  1.05E+03  5.29E-01  1.00E+01  3.52E-01  1.18E+00
   1    8    6     5     4    4.436E+00   7.676E-01  3.669E+00  0.00E+00  0.00E+00  0.00E+00  1.05E+03  4.90E-01  8.80E+00  2.20E-01  1.16E+00
   1    9    6     6     1    3.669E+00   2.032E+00  1.637E+00  0.00E+00  0.00E+00  0.00E+00  1.04E+03  3.86E-01  1.20E+01  6.00E-01  1.13E+00
   1   10    7     6     2    1.637E+00   1.637E+00  0.000E+00  0.00E+00  0.00E+00  0.00E+00  1.04E+03  2.38E-01  1.20E+01  6.00E-01  1.08E+00
   1   11    7     6     3    0.000E+00   0.000E+00  0.000E+00  0.00E+00  0.00E+00  0.00E+00  1.03E+03  0.00E+00  1.20E+01  6.00E-01  1.00E+00
   1   12    7     6     4    0.000E+00   0.000E+00  0.000E+00  0.00E+00  0.00E+00  0.00E+00  1.03E+03  6.10E-05  1.20E+01  6.00E-01  7.14E-01
   1   13    7     6     5    0.000E+00  -7.040E-01  7.040E-01  0.00E+00  0.00E+00  0.00E+00  1.03E+03  9.46E-02  1.20E+01  2.40E-01 -9.78E-01
   1   14    9     7     1    1.500E+02   2.959E+00  1.470E+02  0.00E+00  0.00E+00  0.00E+00  1.04E+03  2.28E+00  5.53E+01  5.59E+00  1.76E-01
   1   13    8     7     2    1.470E+02   4.171E+00  1.429E+02  0.00E+00  0.00E+00  0.00E+00  1.03E+03  2.26E+00  5.52E+01  6.14E+00  2.26E-01
   1   13    7     7     3    1.429E+02   4.036E+00  1.388E+02  0.00E+00  0.00E+00  0.00E+00  1.03E+03  2.24E+00  5.51E+01  5.57E+00  2.42E-01
   1   13    6     8     1    1.395E+02   2.614E+00  1.369E+02  0.00E+00  0.00E+00  0.00E+00  1.02E+03  2.73E+00  3.96E+01  4.04E+00  2.16E-01
   1   13    5     8     2    1.369E+02   2.816E-01  1.366E+02  0.00E+00  0.00E+00  0.00E+00  1.02E+03  2.72E+00  3.95E+01  4.02E+00  2.33E-02
   1   13    4     8     3    1.366E+02  -1.563E+00  1.382E+02  0.00E+00  0.00E+00  0.00E+00  1.01E+03  2.73E+00  3.95E+01  4.03E+00 -1.29E-01
   1   13    3     8     4    1.382E+02  -2.412E+00  1.406E+02  0.00E+00  0.00E+00  0.00E+00  1.01E+03  2.74E+00  3.97E+01  4.05E+00 -1.99E-01
   1   13    2     8     5    1.406E+02  -1.042E+00  1.417E+02  0.00E+00  0.00E+00  0.00E+00  1.00E+03  2.75E+00  3.99E+01  4.07E+00 -8.54E-02
   1   13    1     8     6    1.417E+02   3.919E-01  1.413E+02  0.00E+00  0.00E+00  0.00E+00  9.95E+02  2.76E+00  4.00E+01  2.44E+00  5.35E-02



1
              HEAD IN LAYER   1 AT END OF TIME STEP  10 IN STRESS PERIOD    1
  ---------------------------------------------------------------------------

           1       2       3       4       5       6       7       8       9      10
 ...................................................................................
   1  1092.86 1089.41 6999.00 6999.00 6999.00 6999.00 6999.00 6999.00 6999.00 6999.00
   2  1089.87 1086.67 1081.07 6999.00 6999.00 1071.86 1071.18 1070.85 6999.00 6999.00
   3  6999.00 1079.05 1076.49 1071.71 1071.55 1070.11 1068.95 1068.40 6999.00 6999.00
   4  1068.76 1069.84 1067.91 1062.94 1061.55 1060.69 1062.39 1065.67 1065.89 6999.00
   5  1064.47 1062.25 1058.01 1053.19 1053.42 1056.06 1057.56 1060.95 1065.29 1068.00
   6  1059.22 1055.49 1048.40 1040.13 1042.01 1049.37 1053.62 1057.61 1061.44 1065.51
   7  1055.43 1049.49 1040.75 1031.06 1033.80 1042.62 1049.08 1053.39 1056.03 6999.00
   8  6999.00 1042.61 1034.24 1023.98 1027.30 1036.65 1042.48 1047.94 1050.09 6999.00
   9  6999.00 1035.71 1028.43 1019.03 1022.68 1031.80 1036.40 1041.09 1043.77 6999.00
  10  6999.00 1028.60 1023.65 1016.96 1020.33 1027.97 1032.39 1036.13 1039.06 1041.56
  11  6999.00 1020.18 1019.13 1019.24 1021.87 1026.04 1028.96 1032.49 1035.52 6999.00
  12  1001.10 1008.76 1013.07 1016.80 1020.36 1024.13 1026.95 1029.94 1034.22 6999.00
  13   994.47  999.88 1006.46 1012.49 1018.28 1023.96 1028.94 1034.09 1036.12 6999.00
  14  6999.00 1003.99 1008.89 1013.58 1018.75 1023.93 1029.43 1035.09 1039.33 6999.00
  15  6999.00 6999.00 1011.90 1015.08 1019.10 1022.38 6999.00 6999.00 6999.00 6999.00
1
  VOLUMETRIC BUDGET FOR ENTIRE MODEL AT END OF TIME STEP 10 IN STRESS PERIOD   1
  ------------------------------------------------------------------------------

     CUMULATIVE VOLUMES      L**3       RATES FOR THIS TIME STEP      L**3/T
     ------------------                 ------------------------

           IN:                                      IN:
           ---                                      ---
             STORAGE =  1839746690.0000               STORAGE =          77.3877
       CONSTANT HEAD =           0.0000         CONSTANT HEAD =           0.0000
               WELLS =           0.0000                 WELLS =           0.0000
                  ET =           0.0000                    ET =           0.0000
     HEAD DEP BOUNDS =     4652304.0000       HEAD DEP BOUNDS =           0.2153
            RECHARGE =    38755624.0000              RECHARGE =           1.7937
      STREAM LEAKAGE =  1024739840.0000        STREAM LEAKAGE =          49.4541

            TOTAL IN =  2907894530.0000              TOTAL IN =         128.8508

          OUT:                                     OUT:
          ----                                     ----
             STORAGE =     1790008.6200               STORAGE =           0.0000
       CONSTANT HEAD =           0.0000         CONSTANT HEAD =           0.0000
               WELLS =  2160592380.0000                 WELLS =         100.0000
                  ET =   577613120.0000                    ET =          22.8853
     HEAD DEP BOUNDS =     5334157.0000       HEAD DEP BOUNDS =           0.2459
            RECHARGE =           0.0000              RECHARGE =           0.0000
      STREAM LEAKAGE =   162876144.0000        STREAM LEAKAGE =           5.7208

           TOTAL OUT =  2908205820.0000             TOTAL OUT =         128.8519

            IN - OUT =     -311357.6250              IN - OUT =      -1.1200E-03

 PERCENT DISCREPANCY =          -0.01     PERCENT DISCREPANCY =           0.00






          TIME SUMMARY AT END OF TIME STEP  10 IN STRESS PERIOD    1
                    SECONDS     MINUTES      HOURS       DAYS        YEARS
                    -----------------------------------------------------------
   TIME STEP LENGTH 3.19660E+06  53277.      887.95      36.998     0.10129    
 STRESS PERIOD TIME 2.16059E+07 3.60099E+05  6001.6      250.07     0.68465    
         TOTAL TIME 2.16059E+07 3.60099E+05  6001.6      250.07     0.68465    
1
 
 SOLVING FOR HEAD 
     7 ITERATIONS FOR TIME STEP  11 IN STRESS PERIOD    1

 MAXIMUM HEAD CHANGE FOR EACH ITERATION:

    HEAD CHANGE   HEAD CHANGE   HEAD CHANGE   HEAD CHANGE   HEAD CHANGE
  LAYER,ROW,COL LAYER,ROW,COL LAYER,ROW,COL LAYER,ROW,COL LAYER,ROW,COL
 ----------------------------------------------------------------------
     -1.332       -0.4083       -0.1111       -0.2515E-01   -0.6200E-02
  (  1,  8,  3) (  1,  8,  5) (  1,  8,  5) (  1,  8,  5) (  1, 10,  7)
    -0.1338E-02   -0.4109E-03
  (  1, 10,  7) (  1, 10,  7)


 NO OUTPUT CONTROL FOR STRESS PERIOD    1   TIME STEP  11
 
 SOLVING FOR HEAD 
     7 ITERATIONS FOR TIME STEP  12 IN STRESS PERIOD    1

 MAXIMUM HEAD CHANGE FOR EACH ITERATION:

    HEAD CHANGE   HEAD CHANGE   HEAD CHANGE   HEAD CHANGE   HEAD CHANGE
  LAYER,ROW,COL LAYER,ROW,COL LAYER,ROW,COL LAYER,ROW,COL LAYER,ROW,COL
 ----------------------------------------------------------------------
     -1.351       -0.4263       -0.1201       -0.2766E-01   -0.6301E-02
  (  1,  8,  3) (  1,  8,  5) (  1,  8,  5) (  1,  8,  5) (  1, 10,  7)
    -0.1417E-02   -0.4204E-03
  (  1, 10,  7) (  1, 10,  7)


 NO OUTPUT CONTROL FOR STRESS PERIOD    1   TIME STEP  12
 
 SOLVING FOR HEAD 
     7 ITERATIONS FOR TIME STEP  13 IN STRESS PERIOD    1

 MAXIMUM HEAD CHANGE FOR EACH ITERATION:

    HEAD CHANGE   HEAD CHANGE   HEAD CHANGE   HEAD CHANGE   HEAD CHANGE
  LAYER,ROW,COL LAYER,ROW,COL LAYER,ROW,COL LAYER,ROW,COL LAYER,ROW,COL
 ----------------------------------------------------------------------
     -1.365       -0.4464       -0.1306       -0.3074E-01   -0.7266E-02
  (  1,  8,  3) (  1,  8,  5) (  1,  8,  5) (  1,  8,  5) (  1, 10,  7)
    -0.1650E-02   -0.4965E-03
  (  1, 10,  7) (  1, 10,  7)


 OUTPUT CONTROL FOR STRESS PERIOD    1   TIME STEP  13
    PRINT BUDGET
    PRINT HEAD FOR ALL LAYERS
    SAVE BUDGET

            WELLS   PERIOD    1   STEP  13
 WELL      1   LAYER   1   ROW     6   COL     4   RATE    -10.0000    
 WELL      2   LAYER   1   ROW     6   COL     5   RATE    -10.0000    
 WELL      3   LAYER   1   ROW     7   COL     4   RATE    -10.0000    
 WELL      4   LAYER   1   ROW     7   COL     5   RATE    -10.0000    
 WELL      5   LAYER   1   ROW     8   COL     4   RATE    -10.0000    
 WELL      6   LAYER   1   ROW     8   COL     5   RATE    -10.0000    
 WELL      7   LAYER   1   ROW     9   COL     4   RATE    -10.0000    
 WELL      8   LAYER   1   ROW     9   COL     5   RATE    -10.0000    
 WELL      9   LAYER   1   ROW    10   COL     4   RATE    -10.0000    
 WELL     10   LAYER   1   ROW    10   COL     5   RATE    -10.0000    
 UBUDSV SAVING "              ET" ON UNIT 59 AT TIME STEP 13, STRESS PERIOD    1

  HEAD DEP BOUNDS   PERIOD    1   STEP  13
 BOUNDARY      1   LAYER   1   ROW    13   COL     1   RATE   -0.244627    
 BOUNDARY      2   LAYER   1   ROW    14   COL     9   RATE    0.215323    



   STREAM LEAKAGE   PERIOD    1   STEP  13

 LAYER ROW COL. STREAM  RCH.  FLOW INTO    FLOW TO  FLOW OUT OF  OVRLND.   DIRECT    STREAM    STREAM    STREAM    STREAM  STREAMBED  STREAMBED
                SEG.NO.  NO.  STRM. RCH.   AQUIFER   STRM. RCH.  RUNOFF    PRECIP      ET       HEAD      DEPTH     WIDTH  CONDCTNC.   GRADIENT

   1    1    1     1     1    2.500E+01   8.049E-01  2.420E+01  0.00E+00  0.00E+00  0.00E+00  1.09E+03  1.17E+00  1.30E+01  5.84E-01  4.59E-01
   1    2    2     1     2    2.420E+01   2.418E+00  2.178E+01  0.00E+00  0.00E+00  0.00E+00  1.09E+03  1.15E+00  1.27E+01  8.86E-01  9.10E-01
   1    3    3     1     3    2.178E+01   2.972E+00  1.881E+01  0.00E+00  0.00E+00  0.00E+00  1.08E+03  1.11E+00  1.21E+01  7.24E-01  1.37E+00
   1    3    4     1     4    1.881E+01   2.532E+00  1.627E+01  0.00E+00  0.00E+00  0.00E+00  1.08E+03  1.06E+00  1.12E+01  6.24E-01  1.35E+00
   1    4    5     2     1    6.273E+00   2.751E+00  3.522E+00  0.00E+00  0.00E+00  0.00E+00  1.07E+03  5.27E-01  1.20E+01  7.80E-01  1.18E+00
   1    5    6     2     2    3.522E+00   2.024E+00  1.499E+00  0.00E+00  0.00E+00  0.00E+00  1.07E+03  3.73E-01  1.20E+01  6.00E-01  1.12E+00
   1    6    6     2     3    1.499E+00   1.499E+00  0.000E+00  0.00E+00  0.00E+00  0.00E+00  1.06E+03  2.23E-01  1.20E+01  6.00E-01  1.07E+00
   1    7    6     2     4    0.000E+00   0.000E+00  0.000E+00  0.00E+00  0.00E+00  0.00E+00  1.06E+03  0.00E+00  1.20E+01  6.00E-01  1.00E+00
   1    8    6     2     5    0.000E+00   0.000E+00  0.000E+00  0.00E+00  0.00E+00  0.00E+00  1.05E+03  0.00E+00  1.20E+01  6.00E-01  1.00E+00
   1    3    5     3     1    1.000E+01   2.825E+00  7.175E+00  0.00E+00  0.00E+00  0.00E+00  1.08E+03  1.91E+00  9.64E+00  7.23E-01  1.95E+00
   1    3    6     3     2    7.175E+00   2.057E+00  5.117E+00  0.00E+00  0.00E+00  0.00E+00  1.07E+03  1.73E+00  8.91E+00  6.68E-01  1.54E+00
   1    3    7     3     3    5.117E+00   6.674E-01  4.450E+00  0.00E+00  0.00E+00  0.00E+00  1.07E+03  1.55E+00  8.22E+00  5.55E-01  6.02E-01
   1    4    8     3     4    4.450E+00   9.965E-01  3.453E+00  0.00E+00  0.00E+00  0.00E+00  1.07E+03  1.36E+00  7.45E+00  6.71E-01  7.43E-01
   1    5    8     3     5    3.453E+00   1.579E+00  1.874E+00  0.00E+00  0.00E+00  0.00E+00  1.06E+03  1.16E+00  6.65E+00  4.99E-01  1.58E+00
   1    6    8     3     6    1.874E+00   5.598E-01  1.315E+00  0.00E+00  0.00E+00  0.00E+00  1.06E+03  1.04E+00  6.15E+00  1.84E-01  1.52E+00
   1    5   10     4     1    1.000E+01   9.096E-01  9.090E+00  0.00E+00  0.00E+00  0.00E+00  1.08E+03  6.39E-01  1.00E+01  2.50E-01  1.21E+00
   1    5    9     4     2    9.090E+00   1.802E+00  7.289E+00  0.00E+00  0.00E+00  0.00E+00  1.07E+03  6.03E-01  1.00E+01  5.00E-01  1.20E+00
   1    6    8     4     3    7.289E+00   1.235E+00  6.054E+00  0.00E+00  0.00E+00  0.00E+00  1.06E+03  5.28E-01  1.00E+01  3.50E-01  1.18E+00
   1    6    8     5     1    7.369E+00   1.242E+00  6.126E+00  0.00E+00  0.00E+00  0.00E+00  1.06E+03  5.85E-01  1.19E+01  4.78E-01  8.67E-01
   1    7    7     5     2    6.126E+00   1.810E+00  4.316E+00  0.00E+00  0.00E+00  0.00E+00  1.05E+03  5.35E-01  1.02E+01  5.12E-01  1.18E+00
   1    8    7     5     3    4.316E+00   1.031E+00  3.285E+00  0.00E+00  0.00E+00  0.00E+00  1.05E+03  4.79E-01  8.47E+00  2.96E-01  1.16E+00
   1    8    6     5     4    3.285E+00   6.279E-01  2.657E+00  0.00E+00  0.00E+00  0.00E+00  1.05E+03  4.39E-01  7.30E+00  1.83E-01  1.15E+00
[...]



   STREAM LEAKAGE   PERIOD    2   STEP  49

 LAYER ROW COL. STREAM  RCH.  FLOW INTO    FLOW TO  FLOW OUT OF  OVRLND.   DIRECT    STREAM    STREAM    STREAM    STREAM  STREAMBED  STREAMBED
                SEG.NO.  NO.  STRM. RCH.   AQUIFER   STRM. RCH.  RUNOFF    PRECIP      ET       HEAD      DEPTH     WIDTH  CONDCTNC.   GRADIENT

   1    1    1     1     1    2.500E+01   7.932E-01  2.421E+01  0.00E+00  0.00E+00  0.00E+00  1.09E+03  1.17E+00  1.30E+01  5.84E-01  4.53E-01
   1    2    2     1     2    2.421E+01   2.147E+00  2.206E+01  0.00E+00  0.00E+00  0.00E+00  1.09E+03  1.15E+00  1.27E+01  8.88E-01  8.06E-01
   1    3    3     1     3    2.206E+01   2.990E+00  1.907E+01  0.00E+00  0.00E+00  0.00E+00  1.08E+03  1.11E+00  1.21E+01  7.28E-01  1.37E+00
   1    3    4     1     4    1.907E+01   2.553E+00  1.652E+01  0.00E+00  0.00E+00  0.00E+00  1.08E+03  1.06E+00  1.13E+01  6.28E-01  1.35E+00
   1    4    5     2     1    6.516E+00   2.760E+00  3.756E+00  0.00E+00  0.00E+00  0.00E+00  1.07E+03  5.39E-01  1.20E+01  7.80E-01  1.18E+00
   1    5    6     2     2    3.756E+00   2.032E+00  1.723E+00  0.00E+00  0.00E+00  0.00E+00  1.07E+03  3.87E-01  1.20E+01  6.00E-01  1.13E+00
   1    6    6     2     3    1.723E+00   1.723E+00  0.000E+00  0.00E+00  0.00E+00  0.00E+00  1.06E+03  2.43E-01  1.20E+01  6.00E-01  1.08E+00
   1    7    6     2     4    0.000E+00   0.000E+00  0.000E+00  0.00E+00  0.00E+00  0.00E+00  1.06E+03  0.00E+00  1.20E+01  6.00E-01  1.00E+00
   1    8    6     2     5    0.000E+00   0.000E+00  0.000E+00  0.00E+00  0.00E+00  0.00E+00  1.05E+03  0.00E+00  1.20E+01  6.00E-01  1.00E+00
   1    3    5     3     1    1.000E+01   2.185E+00  7.815E+00  0.00E+00  0.00E+00  0.00E+00  1.08E+03  1.91E+00  9.64E+00  7.23E-01  1.51E+00
   1    3    6     3     2    7.815E+00   1.374E+00  6.441E+00  0.00E+00  0.00E+00  0.00E+00  1.07E+03  1.73E+00  8.91E+00  6.68E-01  1.03E+00
   1    3    7     3     3    6.441E+00   4.210E-01  6.020E+00  0.00E+00  0.00E+00  0.00E+00  1.07E+03  1.55E+00  8.22E+00  5.55E-01  3.79E-01
   1    4    8     3     4    6.020E+00   6.082E-01  5.412E+00  0.00E+00  0.00E+00  0.00E+00  1.07E+03  1.36E+00  7.45E+00  6.71E-01  4.53E-01
   1    5    8     3     5    5.412E+00   7.980E-01  4.614E+00  0.00E+00  0.00E+00  0.00E+00  1.06E+03  1.16E+00  6.65E+00  4.99E-01  7.99E-01
   1    6    8     3     6    4.614E+00   4.580E-01  4.156E+00  0.00E+00  0.00E+00  0.00E+00  1.06E+03  1.04E+00  6.15E+00  1.84E-01  1.24E+00
   1    5   10     4     1    1.000E+01   9.096E-01  9.090E+00  0.00E+00  0.00E+00  0.00E+00  1.08E+03  6.39E-01  1.00E+01  2.50E-01  1.21E+00
   1    5    9     4     2    9.090E+00   1.802E+00  7.289E+00  0.00E+00  0.00E+00  0.00E+00  1.07E+03  6.03E-01  1.00E+01  5.00E-01  1.20E+00
   1    6    8     4     3    7.289E+00   1.235E+00  6.054E+00  0.00E+00  0.00E+00  0.00E+00  1.06E+03  5.28E-01  1.00E+01  3.50E-01  1.18E+00
   1    6    8     5     1    1.021E+01  -2.580E-01  1.047E+01  0.00E+00  0.00E+00  0.00E+00  1.06E+03  6.80E-01  1.54E+01  6.17E-01 -1.39E-01
   1    7    7     5     2    1.047E+01   7.447E-01  9.723E+00  0.00E+00  0.00E+00  0.00E+00  1.05E+03  6.74E-01  1.52E+01  7.61E-01  3.26E-01
   1    8    7     5     3    9.723E+00   1.044E+00  8.679E+00  0.00E+00  0.00E+00  0.00E+00  1.05E+03  6.52E-01  1.44E+01  5.04E-01  6.91E-01
   1    8    6     5     4    8.679E+00   1.515E-01  8.527E+00  0.00E+00  0.00E+00  0.00E+00  1.05E+03  6.37E-01  1.38E+01  3.46E-01  1.46E-01
   1    9    6     6     1    8.527E+00   1.375E+00  7.152E+00  0.00E+00  0.00E+00  0.00E+00  1.04E+03  6.09E-01  1.20E+01  6.00E-01  7.64E-01
   1   10    7     6     2    7.152E+00   1.330E+00  5.822E+00  0.00E+00  0.00E+00  0.00E+00  1.04E+03  5.43E-01  1.20E+01  6.00E-01  7.39E-01
   1   11    7     6     3    5.822E+00   1.216E+00  4.606E+00  0.00E+00  0.00E+00  0.00E+00  1.03E+03  4.77E-01  1.20E+01  6.00E-01  6.76E-01
   1   12    7     6     4    4.606E+00   5.684E-01  4.037E+00  0.00E+00  0.00E+00  0.00E+00  1.03E+03  4.26E-01  1.20E+01  6.00E-01  3.16E-01
   1   13    7     6     5    4.037E+00  -6.614E-01  4.699E+00  0.00E+00  0.00E+00  0.00E+00  1.03E+03  4.29E-01  1.20E+01  2.40E-01 -9.19E-01
   1   14    9     7     1    1.500E+02   2.956E+00  1.470E+02  0.00E+00  0.00E+00  0.00E+00  1.04E+03  2.28E+00  5.53E+01  5.59E+00  1.76E-01
   1   13    8     7     2    1.470E+02   4.055E+00  1.430E+02  0.00E+00  0.00E+00  0.00E+00  1.03E+03  2.26E+00  5.52E+01  6.14E+00  2.20E-01
   1   13    7     7     3    1.430E+02   3.182E+00  1.398E+02  0.00E+00  0.00E+00  0.00E+00  1.03E+03  2.25E+00  5.51E+01  5.57E+00  1.90E-01
   1   13    6     8     1    1.445E+02   1.569E+00  1.429E+02  0.00E+00  0.00E+00  0.00E+00  1.02E+03  2.77E+00  4.02E+01  4.10E+00  1.28E-01
   1   13    5     8     2    1.429E+02  -1.254E+00  1.442E+02  0.00E+00  0.00E+00  0.00E+00  1.02E+03  2.77E+00  4.02E+01  4.09E+00 -1.02E-01
   1   13    4     8     3    1.442E+02  -2.966E+00  1.472E+02  0.00E+00  0.00E+00  0.00E+00  1.01E+03  2.79E+00  4.04E+01  4.12E+00 -2.40E-01
   1   13    3     8     4    1.472E+02  -3.050E+00  1.502E+02  0.00E+00  0.00E+00  0.00E+00  1.01E+03  2.81E+00  4.07E+01  4.15E+00 -2.45E-01
   1   13    2     8     5    1.502E+02  -1.112E+00  1.513E+02  0.00E+00  0.00E+00  0.00E+00  1.00E+03  2.82E+00  4.09E+01  4.17E+00 -8.89E-02
   1   13    1     8     6    1.513E+02   4.133E-01  1.509E+02  0.00E+00  0.00E+00  0.00E+00  9.95E+02  2.82E+00  4.10E+01  2.50E+00  5.50E-02



1
              HEAD IN LAYER   1 AT END OF TIME STEP  49 IN STRESS PERIOD    2
  ---------------------------------------------------------------------------

           1       2       3       4       5       6       7       8       9      10
 ...................................................................................
   1  1092.86 1089.46 6999.00 6999.00 6999.00 6999.00 6999.00 6999.00 6999.00 6999.00
   2  1089.90 1086.79 1081.56 6999.00 6999.00 1071.52 1070.80 1070.42 6999.00 6999.00
   3  6999.00 1079.49 1077.68 1073.70 1072.52 1070.58 1069.11 1068.36 6999.00 6999.00
   4  1068.74 1070.59 1070.28 1067.11 1065.50 1063.64 1063.87 1065.91 1065.95 6999.00
   5  1064.72 1063.93 1062.97 1061.52 1060.83 1060.77 1060.21 1062.02 1065.68 1068.13
   6  1059.81 1058.38 1057.22 1056.43 1056.28 1056.87 1057.20 1059.10 1061.91 1065.57
   7  1056.21 1053.10 1051.78 1051.20 1051.26 1051.85 1053.19 1055.46 1056.48 6999.00
   8  6999.00 1046.36 1045.77 1045.55 1045.75 1046.45 1047.83 1049.84 1050.39 6999.00
   9  6999.00 1039.09 1039.14 1039.49 1040.04 1041.04 1041.64 1042.85 1044.03 6999.00
  10  6999.00 1031.10 1031.79 1033.26 1034.32 1035.44 1036.51 1037.62 1039.30 1041.53
  11  6999.00 1021.44 1023.10 1026.84 1028.70 1030.49 1032.09 1033.55 1035.69 6999.00
  12  1001.17 1009.24 1014.52 1019.62 1023.14 1026.18 1028.57 1030.37 1034.29 6999.00
  13   994.53  999.96 1006.67 1012.88 1018.70 1024.26 1029.09 1034.10 1036.13 6999.00
  14  6999.00 1004.01 1008.95 1013.70 1018.89 1024.03 1029.48 1035.09 1039.34 6999.00
  15  6999.00 6999.00 1011.92 1015.10 1019.13 1022.39 6999.00 6999.00 6999.00 6999.00
1
  VOLUMETRIC BUDGET FOR ENTIRE MODEL AT END OF TIME STEP 49 IN STRESS PERIOD   2
  ------------------------------------------------------------------------------

     CUMULATIVE VOLUMES      L**3       RATES FOR THIS TIME STEP      L**3/T
     ------------------                 ------------------------

           IN:                                      IN:
           ---                                      ---
             STORAGE = 30230089700.0000               STORAGE =           0.0000
       CONSTANT HEAD =           0.0000         CONSTANT HEAD =           0.0000
               WELLS =           0.0000                 WELLS =           0.0000
                  ET =           0.0000                    ET =           0.0000
     HEAD DEP BOUNDS =   653389632.0000       HEAD DEP BOUNDS =           0.2153
            RECHARGE =  5401130500.0000              RECHARGE =           1.7937
      STREAM LEAKAGE =225501659000.0000        STREAM LEAKAGE =          43.3961

            TOTAL IN =261786272000.0000              TOTAL IN =          45.4051

          OUT:                                     OUT:
          ----                                     ----
             STORAGE = 30228062200.0000               STORAGE =       2.3281E-02
       CONSTANT HEAD =           0.0000         CONSTANT HEAD =           0.0000
               WELLS =157787963000.0000                 WELLS =           0.0000
                  ET = 63194591200.0000                    ET =          35.8327
     HEAD DEP BOUNDS =   699989824.0000       HEAD DEP BOUNDS =           0.2483
            RECHARGE =           0.0000              RECHARGE =           0.0000
      STREAM LEAKAGE =  9875918850.0000        STREAM LEAKAGE =           9.3009

           TOTAL OUT =261786518000.0000             TOTAL OUT =          45.4052

            IN - OUT =     -256512.0000              IN - OUT =      -9.2216E-05

 PERCENT DISCREPANCY =           0.00     PERCENT DISCREPANCY =           0.00






          TIME SUMMARY AT END OF TIME STEP  49 IN STRESS PERIOD    2
                    SECONDS     MINUTES      HOURS       DAYS        YEARS
                    -----------------------------------------------------------
   TIME STEP LENGTH 1.31524E+08 2.19206E+06  36534.      1522.3      4.1677    
 STRESS PERIOD TIME 1.43320E+09 2.38867E+07 3.98112E+05  16588.      45.415    
         TOTAL TIME 3.01108E+09 5.01847E+07 8.36412E+05  34850.      95.415    
1
 
 SOLVING FOR HEAD 
     4 ITERATIONS FOR TIME STEP  50 IN STRESS PERIOD    2

 MAXIMUM HEAD CHANGE FOR EACH ITERATION:

    HEAD CHANGE   HEAD CHANGE   HEAD CHANGE   HEAD CHANGE   HEAD CHANGE
  LAYER,ROW,COL LAYER,ROW,COL LAYER,ROW,COL LAYER,ROW,COL LAYER,ROW,COL
 ----------------------------------------------------------------------
     0.2594E-01    0.6963E-02    0.2629E-02    0.8591E-03
  (  1, 10, 10) (  1,  6,  1) (  1,  6,  1) (  1,  6,  1)


 OUTPUT CONTROL FOR STRESS PERIOD    2   TIME STEP  50
    PRINT BUDGET
    PRINT HEAD FOR ALL LAYERS
    SAVE BUDGET
 UBUDSV SAVING "              ET" ON UNIT 59 AT TIME STEP 50, STRESS PERIOD    2

  HEAD DEP BOUNDS   PERIOD    2   STEP  50
 BOUNDARY      1   LAYER   1   ROW    13   COL     1   RATE   -0.248315    
 BOUNDARY      2   LAYER   1   ROW    14   COL     9   RATE    0.215257    



   STREAM LEAKAGE   PERIOD    2   STEP  50

 LAYER ROW COL. STREAM  RCH.  FLOW INTO    FLOW TO  FLOW OUT OF  OVRLND.   DIRECT    STREAM    STREAM    STREAM    STREAM  STREAMBED  STREAMBED
                SEG.NO.  NO.  STRM. RCH.   AQUIFER   STRM. RCH.  RUNOFF    PRECIP      ET       HEAD      DEPTH     WIDTH  CONDCTNC.   GRADIENT

   1    1    1     1     1    2.500E+01   7.930E-01  2.421E+01  0.00E+00  0.00E+00  0.00E+00  1.09E+03  1.17E+00  1.30E+01  5.84E-01  4.52E-01
   1    2    2     1     2    2.421E+01   2.146E+00  2.206E+01  0.00E+00  0.00E+00  0.00E+00  1.09E+03  1.15E+00  1.27E+01  8.88E-01  8.06E-01
   1    3    3     1     3    2.206E+01   2.991E+00  1.907E+01  0.00E+00  0.00E+00  0.00E+00  1.08E+03  1.11E+00  1.21E+01  7.28E-01  1.37E+00
   1    3    4     1     4    1.907E+01   2.553E+00  1.652E+01  0.00E+00  0.00E+00  0.00E+00  1.08E+03  1.06E+00  1.13E+01  6.28E-01  1.35E+00
   1    4    5     2     1    6.517E+00   2.760E+00  3.757E+00  0.00E+00  0.00E+00  0.00E+00  1.07E+03  5.39E-01  1.20E+01  7.80E-01  1.18E+00
   1    5    6     2     2    3.757E+00   2.032E+00  1.725E+00  0.00E+00  0.00E+00  0.00E+00  1.07E+03  3.87E-01  1.20E+01  6.00E-01  1.13E+00
   1    6    6     2     3    1.725E+00   1.725E+00  0.000E+00  0.00E+00  0.00E+00  0.00E+00  1.06E+03  2.43E-01  1.20E+01  6.00E-01  1.08E+00
   1    7    6     2     4    0.000E+00   0.000E+00  0.000E+00  0.00E+00  0.00E+00  0.00E+00  1.06E+03  0.00E+00  1.20E+01  6.00E-01  1.00E+00
   1    8    6     2     5    0.000E+00   0.000E+00  0.000E+00  0.00E+00  0.00E+00  0.00E+00  1.05E+03  0.00E+00  1.20E+01  6.00E-01  1.00E+00
   1    3    5     3     1    1.000E+01   2.184E+00  7.816E+00  0.00E+00  0.00E+00  0.00E+00  1.08E+03  1.91E+00  9.64E+00  7.23E-01  1.51E+00
   1    3    6     3     2    7.816E+00   1.374E+00  6.442E+00  0.00E+00  0.00E+00  0.00E+00  1.07E+03  1.73E+00  8.91E+00  6.68E-01  1.03E+00
   1    3    7     3     3    6.442E+00   4.207E-01  6.021E+00  0.00E+00  0.00E+00  0.00E+00  1.07E+03  1.55E+00  8.22E+00  5.55E-01  3.79E-01
   1    4    8     3     4    6.021E+00   6.080E-01  5.413E+00  0.00E+00  0.00E+00  0.00E+00  1.07E+03  1.36E+00  7.45E+00  6.71E-01  4.53E-01
   1    5    8     3     5    5.413E+00   7.976E-01  4.616E+00  0.00E+00  0.00E+00  0.00E+00  1.06E+03  1.16E+00  6.65E+00  4.99E-01  7.99E-01
   1    6    8     3     6    4.616E+00   4.579E-01  4.158E+00  0.00E+00  0.00E+00  0.00E+00  1.06E+03  1.04E+00  6.15E+00  1.84E-01  1.24E+00
   1    5   10     4     1    1.000E+01   9.096E-01  9.090E+00  0.00E+00  0.00E+00  0.00E+00  1.08E+03  6.39E-01  1.00E+01  2.50E-01  1.21E+00
   1    5    9     4     2    9.090E+00   1.802E+00  7.289E+00  0.00E+00  0.00E+00  0.00E+00  1.07E+03  6.03E-01  1.00E+01  5.00E-01  1.20E+00
   1    6    8     4     3    7.289E+00   1.235E+00  6.054E+00  0.00E+00  0.00E+00  0.00E+00  1.06E+03  5.28E-01  1.00E+01  3.50E-01  1.18E+00
   1    6    8     5     1    1.021E+01  -2.585E-01  1.047E+01  0.00E+00  0.00E+00  0.00E+00  1.06E+03  6.80E-01  1.54E+01  6.17E-01 -1.40E-01
   1    7    7     5     2    1.047E+01   7.440E-01  9.726E+00  0.00E+00  0.00E+00  0.00E+00  1.05E+03  6.74E-01  1.52E+01  7.61E-01  3.26E-01
   1    8    7     5     3    9.726E+00   1.044E+00  8.682E+00  0.00E+00  0.00E+00  0.00E+00  1.05E+03  6.52E-01  1.44E+01  5.04E-01  6.91E-01
   1    8    6     5     4    8.682E+00   1.512E-01  8.531E+00  0.00E+00  0.00E+00  0.00E+00  1.05E+03  6.37E-01  1.38E+01  3.46E-01  1.46E-01
   1    9    6     6     1    8.531E+00   1.374E+00  7.156E+00  0.00E+00  0.00E+00  0.00E+00  1.04E+03  6.09E-01  1.20E+01  6.00E-01  7.64E-01
   1   10    7     6     2    7.156E+00   1.330E+00  5.826E+00  0.00E+00  0.00E+00  0.00E+00  1.04E+03  5.44E-01  1.20E+01  6.00E-01  7.39E-01
   1   11    7     6     3    5.826E+00   1.216E+00  4.611E+00  0.00E+00  0.00E+00  0.00E+00  1.03E+03  4.77E-01  1.20E+01  6.00E-01  6.75E-01
   1   12    7     6     4    4.611E+00   5.684E-01  4.042E+00  0.00E+00  0.00E+00  0.00E+00  1.03E+03  4.26E-01  1.20E+01  6.00E-01  3.16E-01
   1   13    7     6     5    4.042E+00  -6.613E-01  4.703E+00  0.00E+00  0.00E+00  0.00E+00  1.03E+03  4.29E-01  1.20E+01  2.40E-01 -9.18E-01
   1   14    9     7     1    1.500E+02   2.956E+00  1.470E+02  0.00E+00  0.00E+00  0.00E+00  1.04E+03  2.28E+00  5.53E+01  5.59E+00  1.76E-01
   1   13    8     7     2    1.470E+02   4.055E+00  1.430E+02  0.00E+00  0.00E+00  0.00E+00  1.03E+03  2.26E+00  5.52E+01  6.14E+00  2.20E-01
   1   13    7     7     3    1.430E+02   3.183E+00  1.398E+02  0.00E+00  0.00E+00  0.00E+00  1.03E+03  2.25E+00  5.51E+01  5.57E+00  1.90E-01
   1   13    6     8     1    1.445E+02   1.568E+00  1.429E+02  0.00E+00  0.00E+00  0.00E+00  1.02E+03  2.77E+00  4.02E+01  4.10E+00  1.28E-01
   1   13    5     8     2    1.429E+02  -1.254E+00  1.442E+02  0.00E+00  0.00E+00  0.00E+00  1.02E+03  2.77E+00  4.02E+01  4.09E+00 -1.02E-01
   1   13    4     8     3    1.442E+02  -2.966E+00  1.472E+02  0.00E+00  0.00E+00  0.00E+00  1.01E+03  2.79E+00  4.04E+01  4.12E+00 -2.40E-01
   1   13    3     8     4    1.472E+02  -3.050E+00  1.502E+02  0.00E+00  0.00E+00  0.00E+00  1.01E+03  2.81E+00  4.07E+01  4.15E+00 -2.45E-01
   1   13    2     8     5    1.502E+02  -1.112E+00  1.513E+02  0.00E+00  0.00E+00  0.00E+00  1.00E+03  2.82E+00  4.09E+01  4.17E+00 -8.89E-02
   1   13    1     8     6    1.513E+02   4.134E-01  1.509E+02  0.00E+00  0.00E+00  0.00E+00  9.95E+02  2.82E+00  4.10E+01  2.50E+00  5.50E-02



1
              HEAD IN LAYER   1 AT END OF TIME STEP  50 IN STRESS PERIOD    2
  ---------------------------------------------------------------------------

           1       2       3       4       5       6       7       8       9      10
 ...................................................................................
   1  1092.86 1089.46 6999.00 6999.00 6999.00 6999.00 6999.00 6999.00 6999.00 6999.00
   2  1089.90 1086.79 1081.56 6999.00 6999.00 1071.52 1070.80 1070.42 6999.00 6999.00
   3  6999.00 1079.50 1077.68 1073.70 1072.52 1070.58 1069.11 1068.36 6999.00 6999.00
   4  1068.76 1070.61 1070.28 1067.11 1065.50 1063.64 1063.87 1065.91 1065.95 6999.00
   5  1064.74 1063.94 1062.97 1061.52 1060.83 1060.77 1060.21 1062.02 1065.68 1068.13
   6  1059.84 1058.39 1057.22 1056.44 1056.28 1056.88 1057.20 1059.10 1061.92 1065.58
   7  1056.24 1053.12 1051.78 1051.21 1051.26 1051.85 1053.20 1055.47 1056.48 6999.00
   8  6999.00 1046.37 1045.77 1045.55 1045.75 1046.45 1047.83 1049.85 1050.40 6999.00
   9  6999.00 1039.09 1039.15 1039.49 1040.04 1041.05 1041.64 1042.86 1044.04 6999.00
  10  6999.00 1031.10 1031.79 1033.26 1034.32 1035.44 1036.51 1037.62 1039.31 1041.56
  11  6999.00 1021.44 1023.10 1026.84 1028.70 1030.49 1032.09 1033.56 1035.70 6999.00
  12  1001.17 1009.24 1014.52 1019.62 1023.14 1026.18 1028.57 1030.37 1034.29 6999.00
  13   994.53  999.96 1006.67 1012.88 1018.70 1024.26 1029.09 1034.10 1036.13 6999.00
  14  6999.00 1004.01 1008.96 1013.70 1018.89 1024.03 1029.48 1035.09 1039.34 6999.00
  15  6999.00 6999.00 1011.92 1015.10 1019.13 1022.39 6999.00 6999.00 6999.00 6999.00
1
  VOLUMETRIC BUDGET FOR ENTIRE MODEL AT END OF TIME STEP 50 IN STRESS PERIOD   2
  ------------------------------------------------------------------------------

     CUMULATIVE VOLUMES      L**3       RATES FOR THIS TIME STEP      L**3/T
     ------------------                 ------------------------

           IN:                                      IN:
           ---                                      ---
             STORAGE = 30230089700.0000               STORAGE =           0.0000
       CONSTANT HEAD =           0.0000         CONSTANT HEAD =           0.0000
               WELLS =           0.0000                 WELLS =           0.0000
                  ET =           0.0000                    ET =           0.0000
     HEAD DEP BOUNDS =   684532096.0000       HEAD DEP BOUNDS =           0.2153
            RECHARGE =  5660643330.0000              RECHARGE =           1.7937
      STREAM LEAKAGE =231779369000.0000        STREAM LEAKAGE =          43.3915

            TOTAL IN =268354634000.0000              TOTAL IN =          45.4005

          OUT:                                     OUT:
          ----                                     ----
             STORAGE = 30229254100.0000               STORAGE =       8.2318E-03
       CONSTANT HEAD =           0.0000         CONSTANT HEAD =           0.0000
               WELLS =157787963000.0000                 WELLS =           0.0000
                  ET = 68379856900.0000                    ET =          35.8405
     HEAD DEP BOUNDS =   735915072.0000       HEAD DEP BOUNDS =           0.2483
            RECHARGE =           0.0000              RECHARGE =           0.0000
      STREAM LEAKAGE = 11221698600.0000        STREAM LEAKAGE =           9.3020

           TOTAL OUT =268354683000.0000             TOTAL OUT =          45.3991

            IN - OUT =      -53952.0000              IN - OUT =       1.4246E-03

 PERCENT DISCREPANCY =           0.00     PERCENT DISCREPANCY =           0.00






          TIME SUMMARY AT END OF TIME STEP  50 IN STRESS PERIOD    2
                    SECONDS     MINUTES      HOURS       DAYS        YEARS
                    -----------------------------------------------------------
   TIME STEP LENGTH 1.44676E+08 2.41127E+06  40188.      1674.5      4.5845    
 STRESS PERIOD TIME 1.57788E+09 2.62980E+07 4.38300E+05  18262.      50.000    
         TOTAL TIME 3.15576E+09 5.25960E+07 8.76600E+05  36525.      100.00    
1
