 LISTING FILE: tlkp1.lst
                         UNIT   6

 OPENING ../data/tlkp1.bas
 FILE TYPE:BAS   UNIT   5

 OPENING ../data/tlkp1.bcf
 FILE TYPE:BCF   UNIT   7

 OPENING ../data/tlkp1.tlk
 FILE TYPE:TLK   UNIT   9

 OPENING ../data/tlkp1.sip
 FILE TYPE:SIP   UNIT  12

 OPENING ../data/tlkp1.oc
 FILE TYPE:OC   UNIT  60

 OPENING tlkp1.ddn
 FILE TYPE:DATA(BINARY)   UNIT  61

 OPENING tlkp1.bud
 FILE TYPE:DATA(BINARY)   UNIT  63
1                                 MODFLOW
      U.S. GEOLOGICAL SURVEY MODULAR FINITE-DIFFERENCE GROUND-WATER FLOW MODEL

 Example problem for use of TLK1 package:                                        
 Problem 1-Storage depletion                                                     
    4 LAYERS         1 ROWS        13 COLUMNS
   1 STRESS PERIOD(S) IN SIMULATION
 MODEL TIME UNIT IS DAYS

 BAS5 -- BASIC MODEL PACKAGE, VERSION 5, 1/1/95 INPUT READ FROM UNIT  5
 ARRAYS RHS AND BUFF WILL SHARE MEMORY
 INITIAL HEAD WILL BE KEPT THROUGHOUT THE SIMULATION
        537 ELEMENTS IN X ARRAY ARE USED BY BAS
        537 ELEMENTS OF X ARRAY USED OUT OF    1500000

 BCF5 -- BLOCK-CENTERED FLOW PACKAGE, VERSION 5, 9/1/93 INPUT READ FROM UNIT  7
 TRANSIENT SIMULATION
 HEAD AT CELLS THAT CONVERT TO DRY=       0.    
 WETTING CAPABILITY IS NOT ACTIVE
      LAYER  LAYER-TYPE CODE     INTERBLOCK T
      --------------------------------------------
         1            0          0 -- HARMONIC    
         2            0          0 -- HARMONIC    
         3            0          0 -- HARMONIC    
         4            0          0 -- HARMONIC    
         56 ELEMENTS IN X ARRAY ARE USED BY BCF
        593 ELEMENTS OF X ARRAY USED OUT OF    1500000
0TLK1--TRANSIENT LEAKAGE PACKAGE, VERSION 1, 04/07/93
   2 CONFINING UNITS INCLUDE TRANSIENT LEAKAGE
 CELL-BY-CELL FLOWS WILL BE RECORDED ON UNIT 63
 NUMBER OF TERMS IN M1 SERIES IS 2
    372ELEMENTS IN X ARRAY ARE USED FOR TRANSIENT LEAKAGE
    965ELEMENTS OF X ARRAY USED OUT OF 1500000

 SIP5 -- STRONGLY IMPLICIT PROCEDURE SOLUTION PACKAGE
                    VERSION 5, 9/1/93 INPUT READ FROM UNIT 12
 MAXIMUM OF 120 ITERATIONS ALLOWED FOR CLOSURE
  5 ITERATION PARAMETERS
        693 ELEMENTS IN X ARRAY ARE USED BY SIP
       1658 ELEMENTS OF X ARRAY USED OUT OF    1500000
1
 Example problem for use of TLK1 package:                                        
 Problem 1-Storage depletion                                                     



                     BOUNDARY ARRAY FOR LAYER   1
 READING ON UNIT   5 WITH FORMAT: (13I3)              

                1           2           3           4           5           6           7           8           9          10
               11          12          13
 ............................................................................................................................
   1           -1           1           1           1           1           1           1           1           1           1
                1           1          -1



                     BOUNDARY ARRAY FOR LAYER   2
 READING ON UNIT   5 WITH FORMAT: (13I3)              

                1           2           3           4           5           6           7           8           9          10
               11          12          13
 ............................................................................................................................
   1           -1           1           1           1           1           1           1           1           1           1
                1           1          -1



                     BOUNDARY ARRAY FOR LAYER   3
 READING ON UNIT   5 WITH FORMAT: (13I3)              

                1           2           3           4           5           6           7           8           9          10
               11          12          13
 ............................................................................................................................
   1           -1           1           1           1           1           1           1           1           1           1
                1           1          -1



                     BOUNDARY ARRAY FOR LAYER   4
 READING ON UNIT   5 WITH FORMAT: (13I3)              

                1           2           3           4           5           6           7           8           9          10
               11          12          13
 ............................................................................................................................
   1           -1           1           1           1           1           1           1           1           1           1
                1           1          -1

 AQUIFER HEAD WILL BE SET TO      0.     AT ALL NO-FLOW NODES (IBOUND=0).



                       INITIAL HEAD FOR LAYER   1
 READING ON UNIT   5 WITH FORMAT: (13F5.0)            

            1           2           3           4           5           6           7           8           9          10
           11          12          13
 ........................................................................................................................
   1       0.       11.00       12.00       13.00       14.00       15.00       16.00       17.00       18.00       19.00    
        20.00       21.00       12.00    



                       INITIAL HEAD FOR LAYER   2
 READING ON UNIT   5 WITH FORMAT: (13F5.0)            

            1           2           3           4           5           6           7           8           9          10
           11          12          13
 ........................................................................................................................
   1       0.       11.00       12.00       13.00       14.00       15.00       16.00       17.00       18.00       19.00    
        20.00       21.00       12.00    



                       INITIAL HEAD FOR LAYER   3
 READING ON UNIT   5 WITH FORMAT: (13F5.0)            

            1           2           3           4           5           6           7           8           9          10
           11          12          13
 ........................................................................................................................
   1       0.       11.00       12.00       13.00       14.00       15.00       16.00       17.00       18.00       19.00    
        20.00       21.00       12.00    



                       INITIAL HEAD FOR LAYER   4
 READING ON UNIT   5 WITH FORMAT: (13F5.0)            

            1           2           3           4           5           6           7           8           9          10
           11          12          13
 ........................................................................................................................
   1       0.       11.00       12.00       13.00       14.00       15.00       16.00       17.00       18.00       19.00    
        20.00       21.00       12.00    

 OUTPUT CONTROL IS SPECIFIED EVERY TIME STEP
 HEAD PRINT FORMAT CODE IS   6    DRAWDOWN PRINT FORMAT CODE IS   6
 HEADS WILL BE SAVED ON UNIT  61    DRAWDOWNS WILL BE SAVED ON UNIT  61

 COLUMN TO ROW ANISOTROPY =   1.000000    

                     DELR =   1000.000    

                     DELC =   1000.000    

     PRIMARY STORAGE COEF =  0.2000000E-03 FOR LAYER   1

     TRANSMIS. ALONG ROWS =   2500.000     FOR LAYER   1

 VERT HYD COND /THICKNESS =         0.     FOR LAYER   1

     PRIMARY STORAGE COEF =  0.2000000E-03 FOR LAYER   2

     TRANSMIS. ALONG ROWS =   2500.000     FOR LAYER   2

 VERT HYD COND /THICKNESS =  0.4000000E-03 FOR LAYER   2

     PRIMARY STORAGE COEF =  0.2000000E-03 FOR LAYER   3

     TRANSMIS. ALONG ROWS =   2500.000     FOR LAYER   3

 VERT HYD COND /THICKNESS =         0.     FOR LAYER   3

     PRIMARY STORAGE COEF =  0.2000000E-03 FOR LAYER   4

     TRANSMIS. ALONG ROWS =   2500.000     FOR LAYER   4
0     The following confining units with transient leakage are active:
                       Model     Model
        Confining      layer     layer
           unit        above     below
      ----------------------------------
            1            1         2
            2            3         4


    VERTICAL CONDUCTIVITY =  0.1000000E-01 FOR LAYER   1

  CONFINING BED THICKNESS =   25.00000     FOR LAYER   1

         SPECIFIC STORAGE =  0.1000000E-04 FOR LAYER   1

    VERTICAL CONDUCTIVITY =  0.1000000E-01 FOR LAYER   3

  CONFINING BED THICKNESS =   25.00000     FOR LAYER   3

         SPECIFIC STORAGE =  0.1000000E-04 FOR LAYER   3



          SOLUTION BY THE STRONGLY IMPLICIT PROCEDURE
          -------------------------------------------
 MAXIMUM ITERATIONS ALLOWED FOR CLOSURE =      120
                 ACCELERATION PARAMETER =     1.0000    
      HEAD CHANGE CRITERION FOR CLOSURE =    0.10000E-04
      SIP HEAD CHANGE PRINTOUT INTERVAL =        5

     CALCULATE ITERATION PARAMETERS FROM MODEL CALCULATED WSEED
1
                            STRESS PERIOD NO.   1, LENGTH =   100.0000    
                            ----------------------------------------------

                              NUMBER OF TIME STEPS =    40

                               MULTIPLIER FOR DELT =     1.000

                            INITIAL TIME STEP SIZE =   2.500000    

 AVERAGE SEED = 0.02524518
 MINIMUM SEED = 0.02517243

     5 ITERATION PARAMETERS CALCULATED FROM AVERAGE SEED:

  0.000000E+00 0.601393E+00 0.841113E+00 0.936666E+00 0.974755E+00

    10 ITERATIONS FOR TIME STEP   1 IN STRESS PERIOD  1

 HEAD/DRAWDOWN PRINTOUT FLAG = 1     TOTAL BUDGET PRINTOUT FLAG = 0
 CELL-BY-CELL FLOW TERM FLAG = 1

 OUTPUT FLAGS FOR EACH LAYER:
          HEAD    DRAWDOWN  HEAD  DRAWDOWN
 LAYER  PRINTOUT  PRINTOUT  SAVE    SAVE
 -----------------------------------------
    1       0         0       0       0
    2       0         0       0       1
    3       0         0       0       0
    4       0         0       0       0
 UBUDSV SAVING "    C.B. STORAGE" ON UNIT 63 AT TIME STEP  1, STRESS PERIOD  1
 UBUDSV SAVING "     FLOW IN TOP" ON UNIT 63 AT TIME STEP  1, STRESS PERIOD  1
 UBUDSV SAVING "    FLOW IN BASE" ON UNIT 63 AT TIME STEP  1, STRESS PERIOD  1

 DRAWDOWN WILL BE SAVED ON UNIT  61 AT END OF TIME STEP  1, STRESS PERIOD  1
     9 ITERATIONS FOR TIME STEP   2 IN STRESS PERIOD  1

 HEAD/DRAWDOWN PRINTOUT FLAG = 1     TOTAL BUDGET PRINTOUT FLAG = 0
 CELL-BY-CELL FLOW TERM FLAG = 1
 REUSING PREVIOUS VALUES OF IOFLG
 UBUDSV SAVING "    C.B. STORAGE" ON UNIT 63 AT TIME STEP  2, STRESS PERIOD  1
 UBUDSV SAVING "     FLOW IN TOP" ON UNIT 63 AT TIME STEP  2, STRESS PERIOD  1
 UBUDSV SAVING "    FLOW IN BASE" ON UNIT 63 AT TIME STEP  2, STRESS PERIOD  1

 DRAWDOWN WILL BE SAVED ON UNIT  61 AT END OF TIME STEP  2, STRESS PERIOD  1
     9 ITERATIONS FOR TIME STEP   3 IN STRESS PERIOD  1

 HEAD/DRAWDOWN PRINTOUT FLAG = 1     TOTAL BUDGET PRINTOUT FLAG = 0
 CELL-BY-CELL FLOW TERM FLAG = 1
 REUSING PREVIOUS VALUES OF IOFLG
 UBUDSV SAVING "    C.B. STORAGE" ON UNIT 63 AT TIME STEP  3, STRESS PERIOD  1
 UBUDSV SAVING "     FLOW IN TOP" ON UNIT 63 AT TIME STEP  3, STRESS PERIOD  1
 UBUDSV SAVING "    FLOW IN BASE" ON UNIT 63 AT TIME STEP  3, STRESS PERIOD  1

 DRAWDOWN WILL BE SAVED ON UNIT  61 AT END OF TIME STEP  3, STRESS PERIOD  1
     8 ITERATIONS FOR TIME STEP   4 IN STRESS PERIOD  1

 HEAD/DRAWDOWN PRINTOUT FLAG = 1     TOTAL BUDGET PRINTOUT FLAG = 0
 CELL-BY-CELL FLOW TERM FLAG = 1
 REUSING PREVIOUS VALUES OF IOFLG
 UBUDSV SAVING "    C.B. STORAGE" ON UNIT 63 AT TIME STEP  4, STRESS PERIOD  1
 UBUDSV SAVING "     FLOW IN TOP" ON UNIT 63 AT TIME STEP  4, STRESS PERIOD  1
 UBUDSV SAVING "    FLOW IN BASE" ON UNIT 63 AT TIME STEP  4, STRESS PERIOD  1

 DRAWDOWN WILL BE SAVED ON UNIT  61 AT END OF TIME STEP  4, STRESS PERIOD  1
     7 ITERATIONS FOR TIME STEP   5 IN STRESS PERIOD  1

 MAXIMUM HEAD CHANGE FOR EACH ITERATION:

    HEAD CHANGE   HEAD CHANGE   HEAD CHANGE   HEAD CHANGE   HEAD CHANGE
  LAYER,ROW,COL LAYER,ROW,COL LAYER,ROW,COL LAYER,ROW,COL LAYER,ROW,COL
 ----------------------------------------------------------------------
    -0.1398       -0.8872E-01   -0.4275E-01   -0.1222E-01   -0.1467E-02
  (  4,  1,  7) (  2,  1,  7) (  3,  1,  7) (  2,  1,  8) (  4,  1,  9)
    -0.4137E-04    0.8608E-05
  (  2,  1, 12) (  2,  1,  6)


 HEAD/DRAWDOWN PRINTOUT FLAG = 1     TOTAL BUDGET PRINTOUT FLAG = 0
 CELL-BY-CELL FLOW TERM FLAG = 1
 REUSING PREVIOUS VALUES OF IOFLG
 UBUDSV SAVING "    C.B. STORAGE" ON UNIT 63 AT TIME STEP  5, STRESS PERIOD  1
 UBUDSV SAVING "     FLOW IN TOP" ON UNIT 63 AT TIME STEP  5, STRESS PERIOD  1
 UBUDSV SAVING "    FLOW IN BASE" ON UNIT 63 AT TIME STEP  5, STRESS PERIOD  1

 DRAWDOWN WILL BE SAVED ON UNIT  61 AT END OF TIME STEP  5, STRESS PERIOD  1
     7 ITERATIONS FOR TIME STEP   6 IN STRESS PERIOD  1

 HEAD/DRAWDOWN PRINTOUT FLAG = 1     TOTAL BUDGET PRINTOUT FLAG = 0
 CELL-BY-CELL FLOW TERM FLAG = 1
 REUSING PREVIOUS VALUES OF IOFLG
 UBUDSV SAVING "    C.B. STORAGE" ON UNIT 63 AT TIME STEP  6, STRESS PERIOD  1
 UBUDSV SAVING "     FLOW IN TOP" ON UNIT 63 AT TIME STEP  6, STRESS PERIOD  1
 UBUDSV SAVING "    FLOW IN BASE" ON UNIT 63 AT TIME STEP  6, STRESS PERIOD  1

 DRAWDOWN WILL BE SAVED ON UNIT  61 AT END OF TIME STEP  6, STRESS PERIOD  1
     6 ITERATIONS FOR TIME STEP   7 IN STRESS PERIOD  1

 HEAD/DRAWDOWN PRINTOUT FLAG = 1     TOTAL BUDGET PRINTOUT FLAG = 0
 CELL-BY-CELL FLOW TERM FLAG = 1
 REUSING PREVIOUS VALUES OF IOFLG
 UBUDSV SAVING "    C.B. STORAGE" ON UNIT 63 AT TIME STEP  7, STRESS PERIOD  1
 UBUDSV SAVING "     FLOW IN TOP" ON UNIT 63 AT TIME STEP  7, STRESS PERIOD  1
 UBUDSV SAVING "    FLOW IN BASE" ON UNIT 63 AT TIME STEP  7, STRESS PERIOD  1

 DRAWDOWN WILL BE SAVED ON UNIT  61 AT END OF TIME STEP  7, STRESS PERIOD  1
     6 ITERATIONS FOR TIME STEP   8 IN STRESS PERIOD  1

 HEAD/DRAWDOWN PRINTOUT FLAG = 1     TOTAL BUDGET PRINTOUT FLAG = 0
 CELL-BY-CELL FLOW TERM FLAG = 1
 REUSING PREVIOUS VALUES OF IOFLG
 UBUDSV SAVING "    C.B. STORAGE" ON UNIT 63 AT TIME STEP  8, STRESS PERIOD  1
 UBUDSV SAVING "     FLOW IN TOP" ON UNIT 63 AT TIME STEP  8, STRESS PERIOD  1
 UBUDSV SAVING "    FLOW IN BASE" ON UNIT 63 AT TIME STEP  8, STRESS PERIOD  1

 DRAWDOWN WILL BE SAVED ON UNIT  61 AT END OF TIME STEP  8, STRESS PERIOD  1
     6 ITERATIONS FOR TIME STEP   9 IN STRESS PERIOD  1

 HEAD/DRAWDOWN PRINTOUT FLAG = 1     TOTAL BUDGET PRINTOUT FLAG = 0
 CELL-BY-CELL FLOW TERM FLAG = 1
 REUSING PREVIOUS VALUES OF IOFLG
 UBUDSV SAVING "    C.B. STORAGE" ON UNIT 63 AT TIME STEP  9, STRESS PERIOD  1
 UBUDSV SAVING "     FLOW IN TOP" ON UNIT 63 AT TIME STEP  9, STRESS PERIOD  1
 UBUDSV SAVING "    FLOW IN BASE" ON UNIT 63 AT TIME STEP  9, STRESS PERIOD  1

 DRAWDOWN WILL BE SAVED ON UNIT  61 AT END OF TIME STEP  9, STRESS PERIOD  1
     6 ITERATIONS FOR TIME STEP  10 IN STRESS PERIOD  1

 MAXIMUM HEAD CHANGE FOR EACH ITERATION:

    HEAD CHANGE   HEAD CHANGE   HEAD CHANGE   HEAD CHANGE   HEAD CHANGE
  LAYER,ROW,COL LAYER,ROW,COL LAYER,ROW,COL LAYER,ROW,COL LAYER,ROW,COL
 ----------------------------------------------------------------------
    -0.2125E-02   -0.1347E-02   -0.6491E-03   -0.1856E-03   -0.2228E-04
  (  4,  1,  7) (  2,  1,  7) (  3,  1,  7) (  2,  1,  8) (  4,  1,  9)
    -0.6281E-06
  (  2,  1, 12)


 HEAD/DRAWDOWN PRINTOUT FLAG = 1     TOTAL BUDGET PRINTOUT FLAG = 0
 CELL-BY-CELL FLOW TERM FLAG = 1
 REUSING PREVIOUS VALUES OF IOFLG
 UBUDSV SAVING "    C.B. STORAGE" ON UNIT 63 AT TIME STEP 10, STRESS PERIOD  1
 UBUDSV SAVING "     FLOW IN TOP" ON UNIT 63 AT TIME STEP 10, STRESS PERIOD  1
 UBUDSV SAVING "    FLOW IN BASE" ON UNIT 63 AT TIME STEP 10, STRESS PERIOD  1

 DRAWDOWN WILL BE SAVED ON UNIT  61 AT END OF TIME STEP 10, STRESS PERIOD  1
     5 ITERATIONS FOR TIME STEP  11 IN STRESS PERIOD  1

 HEAD/DRAWDOWN PRINTOUT FLAG = 1     TOTAL BUDGET PRINTOUT FLAG = 0
 CELL-BY-CELL FLOW TERM FLAG = 1
 REUSING PREVIOUS VALUES OF IOFLG
 UBUDSV SAVING "    C.B. STORAGE" ON UNIT 63 AT TIME STEP 11, STRESS PERIOD  1
 UBUDSV SAVING "     FLOW IN TOP" ON UNIT 63 AT TIME STEP 11, STRESS PERIOD  1
 UBUDSV SAVING "    FLOW IN BASE" ON UNIT 63 AT TIME STEP 11, STRESS PERIOD  1

 DRAWDOWN WILL BE SAVED ON UNIT  61 AT END OF TIME STEP 11, STRESS PERIOD  1
     5 ITERATIONS FOR TIME STEP  12 IN STRESS PERIOD  1

 HEAD/DRAWDOWN PRINTOUT FLAG = 1     TOTAL BUDGET PRINTOUT FLAG = 0
 CELL-BY-CELL FLOW TERM FLAG = 1
 REUSING PREVIOUS VALUES OF IOFLG
 UBUDSV SAVING "    C.B. STORAGE" ON UNIT 63 AT TIME STEP 12, STRESS PERIOD  1
 UBUDSV SAVING "     FLOW IN TOP" ON UNIT 63 AT TIME STEP 12, STRESS PERIOD  1
 UBUDSV SAVING "    FLOW IN BASE" ON UNIT 63 AT TIME STEP 12, STRESS PERIOD  1

 DRAWDOWN WILL BE SAVED ON UNIT  61 AT END OF TIME STEP 12, STRESS PERIOD  1
     5 ITERATIONS FOR TIME STEP  13 IN STRESS PERIOD  1

 HEAD/DRAWDOWN PRINTOUT FLAG = 1     TOTAL BUDGET PRINTOUT FLAG = 0
 CELL-BY-CELL FLOW TERM FLAG = 1
 REUSING PREVIOUS VALUES OF IOFLG
 UBUDSV SAVING "    C.B. STORAGE" ON UNIT 63 AT TIME STEP 13, STRESS PERIOD  1
 UBUDSV SAVING "     FLOW IN TOP" ON UNIT 63 AT TIME STEP 13, STRESS PERIOD  1
 UBUDSV SAVING "    FLOW IN BASE" ON UNIT 63 AT TIME STEP 13, STRESS PERIOD  1

 DRAWDOWN WILL BE SAVED ON UNIT  61 AT END OF TIME STEP 13, STRESS PERIOD  1
     4 ITERATIONS FOR TIME STEP  14 IN STRESS PERIOD  1

 HEAD/DRAWDOWN PRINTOUT FLAG = 1     TOTAL BUDGET PRINTOUT FLAG = 0
 CELL-BY-CELL FLOW TERM FLAG = 1
 REUSING PREVIOUS VALUES OF IOFLG
 UBUDSV SAVING "    C.B. STORAGE" ON UNIT 63 AT TIME STEP 14, STRESS PERIOD  1
 UBUDSV SAVING "     FLOW IN TOP" ON UNIT 63 AT TIME STEP 14, STRESS PERIOD  1
 UBUDSV SAVING "    FLOW IN BASE" ON UNIT 63 AT TIME STEP 14, STRESS PERIOD  1

 DRAWDOWN WILL BE SAVED ON UNIT  61 AT END OF TIME STEP 14, STRESS PERIOD  1
     3 ITERATIONS FOR TIME STEP  15 IN STRESS PERIOD  1

 MAXIMUM HEAD CHANGE FOR EACH ITERATION:

    HEAD CHANGE   HEAD CHANGE   HEAD CHANGE   HEAD CHANGE   HEAD CHANGE
  LAYER,ROW,COL LAYER,ROW,COL LAYER,ROW,COL LAYER,ROW,COL LAYER,ROW,COL
 ----------------------------------------------------------------------
    -0.3244E-04   -0.2059E-04   -0.9933E-05
  (  4,  1,  7) (  2,  1,  7) (  3,  1,  7)


 HEAD/DRAWDOWN PRINTOUT FLAG = 1     TOTAL BUDGET PRINTOUT FLAG = 0
 CELL-BY-CELL FLOW TERM FLAG = 1
 REUSING PREVIOUS VALUES OF IOFLG
 UBUDSV SAVING "    C.B. STORAGE" ON UNIT 63 AT TIME STEP 15, STRESS PERIOD  1
 UBUDSV SAVING "     FLOW IN TOP" ON UNIT 63 AT TIME STEP 15, STRESS PERIOD  1
 UBUDSV SAVING "    FLOW IN BASE" ON UNIT 63 AT TIME STEP 15, STRESS PERIOD  1

 DRAWDOWN WILL BE SAVED ON UNIT  61 AT END OF TIME STEP 15, STRESS PERIOD  1
     2 ITERATIONS FOR TIME STEP  16 IN STRESS PERIOD  1

 HEAD/DRAWDOWN PRINTOUT FLAG = 1     TOTAL BUDGET PRINTOUT FLAG = 0
 CELL-BY-CELL FLOW TERM FLAG = 1
 REUSING PREVIOUS VALUES OF IOFLG
 UBUDSV SAVING "    C.B. STORAGE" ON UNIT 63 AT TIME STEP 16, STRESS PERIOD  1
 UBUDSV SAVING "     FLOW IN TOP" ON UNIT 63 AT TIME STEP 16, STRESS PERIOD  1
 UBUDSV SAVING "    FLOW IN BASE" ON UNIT 63 AT TIME STEP 16, STRESS PERIOD  1

 DRAWDOWN WILL BE SAVED ON UNIT  61 AT END OF TIME STEP 16, STRESS PERIOD  1
     1 ITERATIONS FOR TIME STEP  17 IN STRESS PERIOD  1

 HEAD/DRAWDOWN PRINTOUT FLAG = 1     TOTAL BUDGET PRINTOUT FLAG = 0
 CELL-BY-CELL FLOW TERM FLAG = 1
 REUSING PREVIOUS VALUES OF IOFLG
 UBUDSV SAVING "    C.B. STORAGE" ON UNIT 63 AT TIME STEP 17, STRESS PERIOD  1
 UBUDSV SAVING "     FLOW IN TOP" ON UNIT 63 AT TIME STEP 17, STRESS PERIOD  1
 UBUDSV SAVING "    FLOW IN BASE" ON UNIT 63 AT TIME STEP 17, STRESS PERIOD  1

 DRAWDOWN WILL BE SAVED ON UNIT  61 AT END OF TIME STEP 17, STRESS PERIOD  1
     1 ITERATIONS FOR TIME STEP  18 IN STRESS PERIOD  1

 HEAD/DRAWDOWN PRINTOUT FLAG = 1     TOTAL BUDGET PRINTOUT FLAG = 0
 CELL-BY-CELL FLOW TERM FLAG = 1
 REUSING PREVIOUS VALUES OF IOFLG
 UBUDSV SAVING "    C.B. STORAGE" ON UNIT 63 AT TIME STEP 18, STRESS PERIOD  1
 UBUDSV SAVING "     FLOW IN TOP" ON UNIT 63 AT TIME STEP 18, STRESS PERIOD  1
 UBUDSV SAVING "    FLOW IN BASE" ON UNIT 63 AT TIME STEP 18, STRESS PERIOD  1

 DRAWDOWN WILL BE SAVED ON UNIT  61 AT END OF TIME STEP 18, STRESS PERIOD  1
     1 ITERATIONS FOR TIME STEP  19 IN STRESS PERIOD  1

 HEAD/DRAWDOWN PRINTOUT FLAG = 1     TOTAL BUDGET PRINTOUT FLAG = 0
 CELL-BY-CELL FLOW TERM FLAG = 1
 REUSING PREVIOUS VALUES OF IOFLG
 UBUDSV SAVING "    C.B. STORAGE" ON UNIT 63 AT TIME STEP 19, STRESS PERIOD  1
 UBUDSV SAVING "     FLOW IN TOP" ON UNIT 63 AT TIME STEP 19, STRESS PERIOD  1
 UBUDSV SAVING "    FLOW IN BASE" ON UNIT 63 AT TIME STEP 19, STRESS PERIOD  1

 DRAWDOWN WILL BE SAVED ON UNIT  61 AT END OF TIME STEP 19, STRESS PERIOD  1
     1 ITERATIONS FOR TIME STEP  20 IN STRESS PERIOD  1

 MAXIMUM HEAD CHANGE FOR EACH ITERATION:

    HEAD CHANGE   HEAD CHANGE   HEAD CHANGE   HEAD CHANGE   HEAD CHANGE
  LAYER,ROW,COL LAYER,ROW,COL LAYER,ROW,COL LAYER,ROW,COL LAYER,ROW,COL
 ----------------------------------------------------------------------
    -0.2890E-05
  (  2,  1,  7)


 HEAD/DRAWDOWN PRINTOUT FLAG = 1     TOTAL BUDGET PRINTOUT FLAG = 0
 CELL-BY-CELL FLOW TERM FLAG = 1
 REUSING PREVIOUS VALUES OF IOFLG
 UBUDSV SAVING "    C.B. STORAGE" ON UNIT 63 AT TIME STEP 20, STRESS PERIOD  1
 UBUDSV SAVING "     FLOW IN TOP" ON UNIT 63 AT TIME STEP 20, STRESS PERIOD  1
 UBUDSV SAVING "    FLOW IN BASE" ON UNIT 63 AT TIME STEP 20, STRESS PERIOD  1

 DRAWDOWN WILL BE SAVED ON UNIT  61 AT END OF TIME STEP 20, STRESS PERIOD  1
     1 ITERATIONS FOR TIME STEP  21 IN STRESS PERIOD  1

 HEAD/DRAWDOWN PRINTOUT FLAG = 1     TOTAL BUDGET PRINTOUT FLAG = 0
 CELL-BY-CELL FLOW TERM FLAG = 1
 REUSING PREVIOUS VALUES OF IOFLG
 UBUDSV SAVING "    C.B. STORAGE" ON UNIT 63 AT TIME STEP 21, STRESS PERIOD  1
 UBUDSV SAVING "     FLOW IN TOP" ON UNIT 63 AT TIME STEP 21, STRESS PERIOD  1
 UBUDSV SAVING "    FLOW IN BASE" ON UNIT 63 AT TIME STEP 21, STRESS PERIOD  1

 DRAWDOWN WILL BE SAVED ON UNIT  61 AT END OF TIME STEP 21, STRESS PERIOD  1
     1 ITERATIONS FOR TIME STEP  22 IN STRESS PERIOD  1

 HEAD/DRAWDOWN PRINTOUT FLAG = 1     TOTAL BUDGET PRINTOUT FLAG = 0
 CELL-BY-CELL FLOW TERM FLAG = 1
 REUSING PREVIOUS VALUES OF IOFLG
 UBUDSV SAVING "    C.B. STORAGE" ON UNIT 63 AT TIME STEP 22, STRESS PERIOD  1
 UBUDSV SAVING "     FLOW IN TOP" ON UNIT 63 AT TIME STEP 22, STRESS PERIOD  1
 UBUDSV SAVING "    FLOW IN BASE" ON UNIT 63 AT TIME STEP 22, STRESS PERIOD  1

 DRAWDOWN WILL BE SAVED ON UNIT  61 AT END OF TIME STEP 22, STRESS PERIOD  1
     1 ITERATIONS FOR TIME STEP  23 IN STRESS PERIOD  1

 HEAD/DRAWDOWN PRINTOUT FLAG = 1     TOTAL BUDGET PRINTOUT FLAG = 0
 CELL-BY-CELL FLOW TERM FLAG = 1
 REUSING PREVIOUS VALUES OF IOFLG
 UBUDSV SAVING "    C.B. STORAGE" ON UNIT 63 AT TIME STEP 23, STRESS PERIOD  1
 UBUDSV SAVING "     FLOW IN TOP" ON UNIT 63 AT TIME STEP 23, STRESS PERIOD  1
 UBUDSV SAVING "    FLOW IN BASE" ON UNIT 63 AT TIME STEP 23, STRESS PERIOD  1

 DRAWDOWN WILL BE SAVED ON UNIT  61 AT END OF TIME STEP 23, STRESS PERIOD  1
     1 ITERATIONS FOR TIME STEP  24 IN STRESS PERIOD  1

 HEAD/DRAWDOWN PRINTOUT FLAG = 1     TOTAL BUDGET PRINTOUT FLAG = 0
 CELL-BY-CELL FLOW TERM FLAG = 1
 REUSING PREVIOUS VALUES OF IOFLG
 UBUDSV SAVING "    C.B. STORAGE" ON UNIT 63 AT TIME STEP 24, STRESS PERIOD  1
 UBUDSV SAVING "     FLOW IN TOP" ON UNIT 63 AT TIME STEP 24, STRESS PERIOD  1
 UBUDSV SAVING "    FLOW IN BASE" ON UNIT 63 AT TIME STEP 24, STRESS PERIOD  1

 DRAWDOWN WILL BE SAVED ON UNIT  61 AT END OF TIME STEP 24, STRESS PERIOD  1
     1 ITERATIONS FOR TIME STEP  25 IN STRESS PERIOD  1

 MAXIMUM HEAD CHANGE FOR EACH ITERATION:

    HEAD CHANGE   HEAD CHANGE   HEAD CHANGE   HEAD CHANGE   HEAD CHANGE
  LAYER,ROW,COL LAYER,ROW,COL LAYER,ROW,COL LAYER,ROW,COL LAYER,ROW,COL
 ----------------------------------------------------------------------
    -0.6294E-06
  (  2,  1,  7)


 HEAD/DRAWDOWN PRINTOUT FLAG = 1     TOTAL BUDGET PRINTOUT FLAG = 0
 CELL-BY-CELL FLOW TERM FLAG = 1
 REUSING PREVIOUS VALUES OF IOFLG
 UBUDSV SAVING "    C.B. STORAGE" ON UNIT 63 AT TIME STEP 25, STRESS PERIOD  1
 UBUDSV SAVING "     FLOW IN TOP" ON UNIT 63 AT TIME STEP 25, STRESS PERIOD  1
 UBUDSV SAVING "    FLOW IN BASE" ON UNIT 63 AT TIME STEP 25, STRESS PERIOD  1

 DRAWDOWN WILL BE SAVED ON UNIT  61 AT END OF TIME STEP 25, STRESS PERIOD  1
     1 ITERATIONS FOR TIME STEP  26 IN STRESS PERIOD  1

 HEAD/DRAWDOWN PRINTOUT FLAG = 1     TOTAL BUDGET PRINTOUT FLAG = 0
 CELL-BY-CELL FLOW TERM FLAG = 1
 REUSING PREVIOUS VALUES OF IOFLG
 UBUDSV SAVING "    C.B. STORAGE" ON UNIT 63 AT TIME STEP 26, STRESS PERIOD  1
 UBUDSV SAVING "     FLOW IN TOP" ON UNIT 63 AT TIME STEP 26, STRESS PERIOD  1
 UBUDSV SAVING "    FLOW IN BASE" ON UNIT 63 AT TIME STEP 26, STRESS PERIOD  1

 DRAWDOWN WILL BE SAVED ON UNIT  61 AT END OF TIME STEP 26, STRESS PERIOD  1
     1 ITERATIONS FOR TIME STEP  27 IN STRESS PERIOD  1

 HEAD/DRAWDOWN PRINTOUT FLAG = 1     TOTAL BUDGET PRINTOUT FLAG = 0
 CELL-BY-CELL FLOW TERM FLAG = 1
 REUSING PREVIOUS VALUES OF IOFLG
 UBUDSV SAVING "    C.B. STORAGE" ON UNIT 63 AT TIME STEP 27, STRESS PERIOD  1
 UBUDSV SAVING "     FLOW IN TOP" ON UNIT 63 AT TIME STEP 27, STRESS PERIOD  1
 UBUDSV SAVING "    FLOW IN BASE" ON UNIT 63 AT TIME STEP 27, STRESS PERIOD  1

 DRAWDOWN WILL BE SAVED ON UNIT  61 AT END OF TIME STEP 27, STRESS PERIOD  1
     1 ITERATIONS FOR TIME STEP  28 IN STRESS PERIOD  1

 HEAD/DRAWDOWN PRINTOUT FLAG = 1     TOTAL BUDGET PRINTOUT FLAG = 0
 CELL-BY-CELL FLOW TERM FLAG = 1
 REUSING PREVIOUS VALUES OF IOFLG
 UBUDSV SAVING "    C.B. STORAGE" ON UNIT 63 AT TIME STEP 28, STRESS PERIOD  1
 UBUDSV SAVING "     FLOW IN TOP" ON UNIT 63 AT TIME STEP 28, STRESS PERIOD  1
 UBUDSV SAVING "    FLOW IN BASE" ON UNIT 63 AT TIME STEP 28, STRESS PERIOD  1

 DRAWDOWN WILL BE SAVED ON UNIT  61 AT END OF TIME STEP 28, STRESS PERIOD  1
     1 ITERATIONS FOR TIME STEP  29 IN STRESS PERIOD  1

 HEAD/DRAWDOWN PRINTOUT FLAG = 1     TOTAL BUDGET PRINTOUT FLAG = 0
 CELL-BY-CELL FLOW TERM FLAG = 1
 REUSING PREVIOUS VALUES OF IOFLG
 UBUDSV SAVING "    C.B. STORAGE" ON UNIT 63 AT TIME STEP 29, STRESS PERIOD  1
 UBUDSV SAVING "     FLOW IN TOP" ON UNIT 63 AT TIME STEP 29, STRESS PERIOD  1
 UBUDSV SAVING "    FLOW IN BASE" ON UNIT 63 AT TIME STEP 29, STRESS PERIOD  1

 DRAWDOWN WILL BE SAVED ON UNIT  61 AT END OF TIME STEP 29, STRESS PERIOD  1
     1 ITERATIONS FOR TIME STEP  30 IN STRESS PERIOD  1

 MAXIMUM HEAD CHANGE FOR EACH ITERATION:

    HEAD CHANGE   HEAD CHANGE   HEAD CHANGE   HEAD CHANGE   HEAD CHANGE
  LAYER,ROW,COL LAYER,ROW,COL LAYER,ROW,COL LAYER,ROW,COL LAYER,ROW,COL
 ----------------------------------------------------------------------
    -0.1042E-06
  (  2,  1,  7)


 HEAD/DRAWDOWN PRINTOUT FLAG = 1     TOTAL BUDGET PRINTOUT FLAG = 0
 CELL-BY-CELL FLOW TERM FLAG = 1
 REUSING PREVIOUS VALUES OF IOFLG
 UBUDSV SAVING "    C.B. STORAGE" ON UNIT 63 AT TIME STEP 30, STRESS PERIOD  1
 UBUDSV SAVING "     FLOW IN TOP" ON UNIT 63 AT TIME STEP 30, STRESS PERIOD  1
 UBUDSV SAVING "    FLOW IN BASE" ON UNIT 63 AT TIME STEP 30, STRESS PERIOD  1

 DRAWDOWN WILL BE SAVED ON UNIT  61 AT END OF TIME STEP 30, STRESS PERIOD  1
     1 ITERATIONS FOR TIME STEP  31 IN STRESS PERIOD  1

 HEAD/DRAWDOWN PRINTOUT FLAG = 1     TOTAL BUDGET PRINTOUT FLAG = 0
 CELL-BY-CELL FLOW TERM FLAG = 1
 REUSING PREVIOUS VALUES OF IOFLG
 UBUDSV SAVING "    C.B. STORAGE" ON UNIT 63 AT TIME STEP 31, STRESS PERIOD  1
 UBUDSV SAVING "     FLOW IN TOP" ON UNIT 63 AT TIME STEP 31, STRESS PERIOD  1
 UBUDSV SAVING "    FLOW IN BASE" ON UNIT 63 AT TIME STEP 31, STRESS PERIOD  1

 DRAWDOWN WILL BE SAVED ON UNIT  61 AT END OF TIME STEP 31, STRESS PERIOD  1
     1 ITERATIONS FOR TIME STEP  32 IN STRESS PERIOD  1

 HEAD/DRAWDOWN PRINTOUT FLAG = 1     TOTAL BUDGET PRINTOUT FLAG = 0
 CELL-BY-CELL FLOW TERM FLAG = 1
 REUSING PREVIOUS VALUES OF IOFLG
 UBUDSV SAVING "    C.B. STORAGE" ON UNIT 63 AT TIME STEP 32, STRESS PERIOD  1
 UBUDSV SAVING "     FLOW IN TOP" ON UNIT 63 AT TIME STEP 32, STRESS PERIOD  1
 UBUDSV SAVING "    FLOW IN BASE" ON UNIT 63 AT TIME STEP 32, STRESS PERIOD  1

 DRAWDOWN WILL BE SAVED ON UNIT  61 AT END OF TIME STEP 32, STRESS PERIOD  1
     1 ITERATIONS FOR TIME STEP  33 IN STRESS PERIOD  1

 HEAD/DRAWDOWN PRINTOUT FLAG = 1     TOTAL BUDGET PRINTOUT FLAG = 0
 CELL-BY-CELL FLOW TERM FLAG = 1
 REUSING PREVIOUS VALUES OF IOFLG
 UBUDSV SAVING "    C.B. STORAGE" ON UNIT 63 AT TIME STEP 33, STRESS PERIOD  1
 UBUDSV SAVING "     FLOW IN TOP" ON UNIT 63 AT TIME STEP 33, STRESS PERIOD  1
 UBUDSV SAVING "    FLOW IN BASE" ON UNIT 63 AT TIME STEP 33, STRESS PERIOD  1

 DRAWDOWN WILL BE SAVED ON UNIT  61 AT END OF TIME STEP 33, STRESS PERIOD  1
     1 ITERATIONS FOR TIME STEP  34 IN STRESS PERIOD  1

 HEAD/DRAWDOWN PRINTOUT FLAG = 1     TOTAL BUDGET PRINTOUT FLAG = 0
 CELL-BY-CELL FLOW TERM FLAG = 1
 REUSING PREVIOUS VALUES OF IOFLG
 UBUDSV SAVING "    C.B. STORAGE" ON UNIT 63 AT TIME STEP 34, STRESS PERIOD  1
 UBUDSV SAVING "     FLOW IN TOP" ON UNIT 63 AT TIME STEP 34, STRESS PERIOD  1
 UBUDSV SAVING "    FLOW IN BASE" ON UNIT 63 AT TIME STEP 34, STRESS PERIOD  1

 DRAWDOWN WILL BE SAVED ON UNIT  61 AT END OF TIME STEP 34, STRESS PERIOD  1
     1 ITERATIONS FOR TIME STEP  35 IN STRESS PERIOD  1

 MAXIMUM HEAD CHANGE FOR EACH ITERATION:

    HEAD CHANGE   HEAD CHANGE   HEAD CHANGE   HEAD CHANGE   HEAD CHANGE
  LAYER,ROW,COL LAYER,ROW,COL LAYER,ROW,COL LAYER,ROW,COL LAYER,ROW,COL
 ----------------------------------------------------------------------
    -0.1957E-07
  (  4,  1,  4)


 HEAD/DRAWDOWN PRINTOUT FLAG = 1     TOTAL BUDGET PRINTOUT FLAG = 0
 CELL-BY-CELL FLOW TERM FLAG = 1
 REUSING PREVIOUS VALUES OF IOFLG
 UBUDSV SAVING "    C.B. STORAGE" ON UNIT 63 AT TIME STEP 35, STRESS PERIOD  1
 UBUDSV SAVING "     FLOW IN TOP" ON UNIT 63 AT TIME STEP 35, STRESS PERIOD  1
 UBUDSV SAVING "    FLOW IN BASE" ON UNIT 63 AT TIME STEP 35, STRESS PERIOD  1

 DRAWDOWN WILL BE SAVED ON UNIT  61 AT END OF TIME STEP 35, STRESS PERIOD  1
     1 ITERATIONS FOR TIME STEP  36 IN STRESS PERIOD  1

 HEAD/DRAWDOWN PRINTOUT FLAG = 1     TOTAL BUDGET PRINTOUT FLAG = 0
 CELL-BY-CELL FLOW TERM FLAG = 1
 REUSING PREVIOUS VALUES OF IOFLG
 UBUDSV SAVING "    C.B. STORAGE" ON UNIT 63 AT TIME STEP 36, STRESS PERIOD  1
 UBUDSV SAVING "     FLOW IN TOP" ON UNIT 63 AT TIME STEP 36, STRESS PERIOD  1
 UBUDSV SAVING "    FLOW IN BASE" ON UNIT 63 AT TIME STEP 36, STRESS PERIOD  1

 DRAWDOWN WILL BE SAVED ON UNIT  61 AT END OF TIME STEP 36, STRESS PERIOD  1
     1 ITERATIONS FOR TIME STEP  37 IN STRESS PERIOD  1

 HEAD/DRAWDOWN PRINTOUT FLAG = 1     TOTAL BUDGET PRINTOUT FLAG = 0
 CELL-BY-CELL FLOW TERM FLAG = 1
 REUSING PREVIOUS VALUES OF IOFLG
 UBUDSV SAVING "    C.B. STORAGE" ON UNIT 63 AT TIME STEP 37, STRESS PERIOD  1
 UBUDSV SAVING "     FLOW IN TOP" ON UNIT 63 AT TIME STEP 37, STRESS PERIOD  1
 UBUDSV SAVING "    FLOW IN BASE" ON UNIT 63 AT TIME STEP 37, STRESS PERIOD  1

 DRAWDOWN WILL BE SAVED ON UNIT  61 AT END OF TIME STEP 37, STRESS PERIOD  1
     1 ITERATIONS FOR TIME STEP  38 IN STRESS PERIOD  1

 HEAD/DRAWDOWN PRINTOUT FLAG = 1     TOTAL BUDGET PRINTOUT FLAG = 0
 CELL-BY-CELL FLOW TERM FLAG = 1
 REUSING PREVIOUS VALUES OF IOFLG
 UBUDSV SAVING "    C.B. STORAGE" ON UNIT 63 AT TIME STEP 38, STRESS PERIOD  1
 UBUDSV SAVING "     FLOW IN TOP" ON UNIT 63 AT TIME STEP 38, STRESS PERIOD  1
 UBUDSV SAVING "    FLOW IN BASE" ON UNIT 63 AT TIME STEP 38, STRESS PERIOD  1

 DRAWDOWN WILL BE SAVED ON UNIT  61 AT END OF TIME STEP 38, STRESS PERIOD  1
     1 ITERATIONS FOR TIME STEP  39 IN STRESS PERIOD  1

 HEAD/DRAWDOWN PRINTOUT FLAG = 1     TOTAL BUDGET PRINTOUT FLAG = 0
 CELL-BY-CELL FLOW TERM FLAG = 1
 REUSING PREVIOUS VALUES OF IOFLG
 UBUDSV SAVING "    C.B. STORAGE" ON UNIT 63 AT TIME STEP 39, STRESS PERIOD  1
 UBUDSV SAVING "     FLOW IN TOP" ON UNIT 63 AT TIME STEP 39, STRESS PERIOD  1
 UBUDSV SAVING "    FLOW IN BASE" ON UNIT 63 AT TIME STEP 39, STRESS PERIOD  1

 DRAWDOWN WILL BE SAVED ON UNIT  61 AT END OF TIME STEP 39, STRESS PERIOD  1
     1 ITERATIONS FOR TIME STEP  40 IN STRESS PERIOD  1

 MAXIMUM HEAD CHANGE FOR EACH ITERATION:

    HEAD CHANGE   HEAD CHANGE   HEAD CHANGE   HEAD CHANGE   HEAD CHANGE
  LAYER,ROW,COL LAYER,ROW,COL LAYER,ROW,COL LAYER,ROW,COL LAYER,ROW,COL
 ----------------------------------------------------------------------
    -0.4854E-08
  (  2,  1,  6)


 HEAD/DRAWDOWN PRINTOUT FLAG = 1     TOTAL BUDGET PRINTOUT FLAG = 1
 CELL-BY-CELL FLOW TERM FLAG = 1

 OUTPUT FLAGS FOR EACH LAYER:
          HEAD    DRAWDOWN  HEAD  DRAWDOWN
 LAYER  PRINTOUT  PRINTOUT  SAVE    SAVE
 -----------------------------------------
    1       0         1       0       1
    2       0         1       0       1
    3       0         1       0       1
    4       0         1       0       1
 UBUDSV SAVING "    C.B. STORAGE" ON UNIT 63 AT TIME STEP 40, STRESS PERIOD  1
 UBUDSV SAVING "     FLOW IN TOP" ON UNIT 63 AT TIME STEP 40, STRESS PERIOD  1
 UBUDSV SAVING "    FLOW IN BASE" ON UNIT 63 AT TIME STEP 40, STRESS PERIOD  1
1
          DRAWDOWN IN LAYER  1 AT END OF TIME STEP 40 IN STRESS PERIOD  1
  -----------------------------------------------------------------------

           1       2       3       4       5       6       7       8       9      10      11      12      13
 ...........................................................................................................
   1   0.0000 10.0000 10.0000 10.0000 10.0000 10.0000 10.0000 10.0000 10.0000 10.0000 10.0000 10.0000  0.0000
1
          DRAWDOWN IN LAYER  2 AT END OF TIME STEP 40 IN STRESS PERIOD  1
  -----------------------------------------------------------------------

           1       2       3       4       5       6       7       8       9      10      11      12      13
 ...........................................................................................................
   1   0.0000 10.0000 10.0000 10.0000 10.0000 10.0000 10.0000 10.0000 10.0000 10.0000 10.0000 10.0000  0.0000
1
          DRAWDOWN IN LAYER  3 AT END OF TIME STEP 40 IN STRESS PERIOD  1
  -----------------------------------------------------------------------

           1       2       3       4       5       6       7       8       9      10      11      12      13
 ...........................................................................................................
   1   0.0000 10.0000 10.0000 10.0000 10.0000 10.0000 10.0000 10.0000 10.0000 10.0000 10.0000 10.0000  0.0000
1
          DRAWDOWN IN LAYER  4 AT END OF TIME STEP 40 IN STRESS PERIOD  1
  -----------------------------------------------------------------------

           1       2       3       4       5       6       7       8       9      10      11      12      13
 ...........................................................................................................
   1   0.0000 10.0000 10.0000 10.0000 10.0000 10.0000 10.0000 10.0000 10.0000 10.0000 10.0000 10.0000  0.0000

 DRAWDOWN WILL BE SAVED ON UNIT  61 AT END OF TIME STEP 40, STRESS PERIOD  1
1
  VOLUMETRIC BUDGET FOR ENTIRE MODEL AT END OF TIME STEP 40 IN STRESS PERIOD  1
  -----------------------------------------------------------------------------

     CUMULATIVE VOLUMES      L**3       RATES FOR THIS TIME STEP      L**3/T
     ------------------                 ------------------------

           IN:                                      IN:
           ---                                      ---
        C.B. STORAGE =       54999.9922          C.B. STORAGE =           0.0000
        C.H. LEAKAGE =           0.0000          C.H. LEAKAGE =           0.0000
             STORAGE =       87999.9844               STORAGE =           0.0000
       CONSTANT HEAD =      947355.0000         CONSTANT HEAD =        9999.9961

            TOTAL IN =     1090355.0000              TOTAL IN =        9999.9961

          OUT:                                     OUT:
          ----                                     ----
        C.B. STORAGE =           0.1154          C.B. STORAGE =       2.9297E-03
        C.H. LEAKAGE =           0.0000          C.H. LEAKAGE =           0.0000
             STORAGE =           0.0000               STORAGE =           0.0000
       CONSTANT HEAD =     1090356.0000         CONSTANT HEAD =       10000.0020

           TOTAL OUT =     1090356.1250             TOTAL OUT =       10000.0049

            IN - OUT =          -1.1250              IN - OUT =      -8.7891E-03

 PERCENT DISCREPANCY =           0.00     PERCENT DISCREPANCY =           0.00






          TIME SUMMARY AT END OF TIME STEP 40 IN STRESS PERIOD  1
                    SECONDS     MINUTES      HOURS       DAYS        YEARS
                    -----------------------------------------------------------
   TIME STEP LENGTH 2.16000E+05  3600.0      60.000      2.5000     6.84463E-03
 STRESS PERIOD TIME 8.64000E+06 1.44000E+05  2400.0      100.00     0.27379    
         TOTAL TIME 8.64000E+06 1.44000E+05  2400.0      100.00     0.27379    
1
