                                  MODFLOW-2000
      U.S. GEOLOGICAL SURVEY MODULAR FINITE-DIFFERENCE GROUND-WATER FLOW MODEL
                           VERSION 1.19.00 03/15/2010


 This model run combines GLOBAL and LIST output into this single file.

 GLOBAL LISTING FILE: tr2k_s3.lst
                         UNIT    2
#                                                                                                                                                                                                       
# Input files                                                                                                                                                                                           

 OPENING ../data/tr2k_s3.ba6
 FILE TYPE:BAS6   UNIT    1   STATUS:OLD    
 FORMAT:FORMATTED              ACCESS:SEQUENTIAL          

 OPENING ../data/tr2k_s3.dis
 FILE TYPE:DIS   UNIT   10   STATUS:OLD    
 FORMAT:FORMATTED              ACCESS:SEQUENTIAL          

 OPENING ../data/tr2k_s3.bc6
 FILE TYPE:BCF6   UNIT   11   STATUS:OLD    
 FORMAT:FORMATTED              ACCESS:SEQUENTIAL          

 OPENING ../data/tr2k_s3.wel
 FILE TYPE:WEL   UNIT   12   STATUS:OLD    
 FORMAT:FORMATTED              ACCESS:SEQUENTIAL          

 OPENING ../data/tr2k_s3.sip
 FILE TYPE:SIP   UNIT   13   STATUS:OLD    
 FORMAT:FORMATTED              ACCESS:SEQUENTIAL          

 OPENING ../data/tr2k_s3.oc
 FILE TYPE:OC   UNIT   15   STATUS:OLD    
 FORMAT:FORMATTED              ACCESS:SEQUENTIAL          

 OPENING ../data/tr2k_s3.sub
 FILE TYPE:SUB   UNIT   19   STATUS:OLD    
 FORMAT:FORMATTED              ACCESS:SEQUENTIAL          
#                                                                                                                                                                                                       
# Binary output files                                                                                                                                                                                   

 OPENING tr2k_s3.hed
 FILE TYPE:DATA(BINARY)   UNIT   21   STATUS:REPLACE
 FORMAT:BINARY                 ACCESS:SEQUENTIAL          

 OPENING tr2k_s3.ddn
 FILE TYPE:DATA(BINARY)   UNIT   22   STATUS:REPLACE
 FORMAT:BINARY                 ACCESS:SEQUENTIAL          

 OPENING tr2k_s3.sbs
 FILE TYPE:DATA(BINARY)   UNIT   41   STATUS:REPLACE
 FORMAT:BINARY                 ACCESS:SEQUENTIAL          

 OPENING tr2k_s3.cmp
 FILE TYPE:DATA(BINARY)   UNIT   42   STATUS:REPLACE
 FORMAT:BINARY                 ACCESS:SEQUENTIAL          


 DISCRETIZATION INPUT DATA READ FROM UNIT   10
    3 LAYERS        10 ROWS        10 COLUMNS
   31 STRESS PERIOD(S) IN SIMULATION
 MODEL TIME UNIT IS DAYS
 MODEL LENGTH UNIT IS UNDEFINED
 THE GROUND-WATER TRANSPORT PROCESS IS INACTIVE

 THE OBSERVATION PROCESS IS INACTIVE
 THE SENSITIVITY PROCESS IS INACTIVE
 THE PARAMETER-ESTIMATION PROCESS IS INACTIVE

 MODE: FORWARD

  Confining bed flag for each layer:
   0   0   0

       2720  ELEMENTS OF GX ARRAY USED OUT OF       2720
        300  ELEMENTS OF GZ ARRAY USED OUT OF        300
        300  ELEMENTS OF IG ARRAY USED OUT OF        300

                     DELR =   1000.00    

                     DELC =   2000.00    

 TOP ELEVATION OF LAYER 1 =   0.00000    

   MODEL LAYER BOTTOM EL. =  -100.000     FOR LAYER   1

   MODEL LAYER BOTTOM EL. =  -150.000     FOR LAYER   2

   MODEL LAYER BOTTOM EL. =  -250.000     FOR LAYER   3


 STRESS PERIOD     LENGTH       TIME STEPS     MULTIPLIER FOR DELT    SS FLAG
 ----------------------------------------------------------------------------
        1         1.000000          1                    1.000         SS
        2         365.3000          6                    1.300         TR
        3         365.3000          6                    1.300         TR
        4         365.3000          6                    1.300         TR
        5         365.3000          6                    1.300         TR
        6         365.3000          6                    1.300         TR
        7         365.3000          6                    1.300         TR
        8         365.3000          6                    1.300         TR
        9         365.3000          6                    1.300         TR
       10         365.3000          6                    1.300         TR
       11         365.3000          6                    1.300         TR
       12         365.3000          6                    1.300         TR
       13         365.3000          6                    1.300         TR
       14         365.3000          6                    1.300         TR
       15         365.3000          6                    1.300         TR
       16         365.3000          6                    1.300         TR
       17         365.3000          6                    1.300         TR
       18         365.3000          6                    1.300         TR
       19         365.3000          6                    1.300         TR
       20         365.3000          6                    1.300         TR
       21         365.3000          6                    1.300         TR
       22         365.3000          6                    1.300         TR
       23         365.3000          6                    1.300         TR
       24         365.3000          6                    1.300         TR
       25         365.3000          6                    1.300         TR
       26         365.3000          6                    1.300         TR
       27         365.3000          6                    1.300         TR
       28         365.3000          6                    1.300         TR
       29         365.3000          6                    1.300         TR
       30         365.3000          6                    1.300         TR
       31         365.3000          6                    1.300         TR

 COMBINED STEADY-STATE AND TRANSIENT SIMULATION




 SIP5 -- STRONGLY IMPLICIT PROCEDURE SOLUTION PACKAGE
                    VERSION 5, 9/1/93 INPUT READ FROM UNIT   13
 MAXIMUM OF 120 ITERATIONS ALLOWED FOR CLOSURE
  5 ITERATION PARAMETERS
       1325 ELEMENTS IN X ARRAY ARE USED BY SIP
        360 ELEMENTS IN IX ARRAY ARE USED BY SIP

       1325  ELEMENTS OF X ARRAY USED OUT OF       1325
          0  ELEMENTS OF Z ARRAY USED OUT OF          1
        360  ELEMENTS OF IX ARRAY USED OUT OF        360
          0  ELEMENTS OF XHS ARRAY USED OUT OF          1



          SOLUTION BY THE STRONGLY IMPLICIT PROCEDURE
          -------------------------------------------
 MAXIMUM ITERATIONS ALLOWED FOR CLOSURE =      120
                 ACCELERATION PARAMETER =     1.0000    
      HEAD CHANGE CRITERION FOR CLOSURE =    0.10000E-03
      SIP HEAD CHANGE PRINTOUT INTERVAL =        5

     CALCULATE ITERATION PARAMETERS FROM MODEL CALCULATED WSEED
 
 #Sample Problem 3                                                               
 #SUB1 documentation                                                             
    3 LAYERS        10 ROWS        10 COLUMNS
   31 STRESS PERIOD(S) IN SIMULATION

 BAS6 -- BASIC PACKAGE, VERSION 6, 1/11/2000 INPUT READ FROM UNIT    1
         15 ELEMENTS IN IR ARRAY ARE USED BY BAS

 BCF6 -- BLOCK-CENTERED FLOW PACKAGE, VERSION 6, 1/11/2000
         INPUT READ FROM UNIT 11
 TRANSIENT SIMULATION
 HEAD AT CELLS THAT CONVERT TO DRY=   0.0000    
 WETTING CAPABILITY IS NOT ACTIVE
      LAYER  LAYER-TYPE CODE     INTERBLOCK T
      --------------------------------------------
         1            1          0 -- HARMONIC    
         2            0          0 -- HARMONIC    
         3            0          0 -- HARMONIC    
        403 ELEMENTS IN RX ARRAY ARE USED BY BCF

 WEL6 -- WELL PACKAGE, VERSION 6, 1/11/2000 INPUT READ FROM UNIT   12
 No named parameters
 MAXIMUM OF     14 ACTIVE WELLS AT ONE TIME
         56 ELEMENTS IN RX ARRAY ARE USED BY WEL

SUB1 -- SUBSIDENCE PACKAGE, VERSION 1, 06/21/88 INPUT READ FROM UNIT 19

         NUMBER OF SYSTEMS OF NO-DELAYED INTERBEDS:  3
              NUMBER OF SYSTEMS OF DELAY INTERBEDS:  2
                          NUMBER OF MATERIAL ZONES:  1
                    NUMBER OF NODES IN EACH STRING: 20
 RESTART INFORMATION WILL NOT BE SAVED FOR DELAY INTERBEDS
 RESTART INFORMATION WILL NOT BE READ FOR DELAY INTERBEDS
    1 OUTPUT CONTROL RECORDS FOR SUB PACKAGE WILL BE READ.

 MODEL LAYER ASSIGNMENTS FOR EACH OF  3 NO-DELAY SYSTEMS OF INTERBEDS:
    1   2   3

 MODEL LAYER ASSIGNMENTS FOR EACH OF  2 DELAY SYSTEMS OF INTERBEDS:
    1   3

  SYSTEM   1 OF DELAY BEDS:

 NUMBER OF BEDS IN SYSTEM =   7.63500     FOR LAYER   1

  SYSTEM   2 OF DELAY BEDS:

 NUMBER OF BEDS IN SYSTEM =   17.7180     FOR LAYER   3

        459  ELEMENTS OF RX ARRAY USED OUT OF        459
          0  ELEMENTS OF RZ ARRAY USED OUT OF          1
         15  ELEMENTS OF IR ARRAY USED OUT OF         15
1
 #Sample Problem 3                                                               
 #SUB1 documentation                                                             



                     BOUNDARY ARRAY FOR LAYER   1
 READING ON UNIT    1 WITH FORMAT: (20I4)              

        1   2   3   4   5   6   7   8   9  10
 ............................................
   1    3   3   1   1   1   1   1   1   3   3
   2    3   2   2   2   2   2   2   2   2   3
   3    3   2   2   2   2   5   5   2   2   3
   4    3   2   2   2   2   5   5   2   2   3
   5    1   2   2   2   2   2   2   2   2   1
   6    1   2   2   2   2   2   2   2   2   1
   7    1   2   2   2   2   2   2   2   2   1
   8    1   2   2   2   2   2   2   2   2   1
   9    1   2   2   2   2   2   2   2   2   1
  10    1   1   1  -4  -4  -4  -4   1   1   1

           BOUNDARY ARRAY =              1 FOR LAYER   2

           BOUNDARY ARRAY =              1 FOR LAYER   3

 AQUIFER HEAD WILL BE SET TO  999.00     AT ALL NO-FLOW NODES (IBOUND=0).

             INITIAL HEAD =   0.00000     FOR LAYER   1

             INITIAL HEAD =   0.00000     FOR LAYER   2

             INITIAL HEAD =   0.00000     FOR LAYER   3

 OUTPUT CONTROL IS SPECIFIED ONLY AT TIME STEPS FOR WHICH OUTPUT IS DESIRED
 IBOUND WILL BE SAVED ON UNIT   50
 HEAD PRINT FORMAT CODE IS   4    DRAWDOWN PRINT FORMAT CODE IS   5
 HEADS WILL BE SAVED ON UNIT   21    DRAWDOWNS WILL BE SAVED ON UNIT   22

 COLUMN TO ROW ANISOTROPY =   1.00000    

     PRIMARY STORAGE COEF =  0.100000     FOR LAYER   1

    HYD. COND. ALONG ROWS =   20.0000     FOR LAYER   1

 VERT HYD COND /THICKNESS =  3.000000E-06 FOR LAYER   1

     PRIMARY STORAGE COEF =  6.560000E-05 FOR LAYER   2



               TRANSMIS. ALONG ROWS FOR LAYER   2
 READING ON UNIT   11 WITH FORMAT: (10F7.0)            

            1           2           3           4           5           6           7           8           9          10
 ........................................................................................................................
   1    1000.       1000.       1000.       1000.       1000.       1000.       1000.       1000.       1000.       1000.    
   2    1000.      0.5000      0.5000      0.5000      0.5000      0.5000      0.5000      0.5000      0.5000       1000.    
   3    1000.      0.5000      0.5000      0.5000      0.5000      0.5000      0.5000      0.5000      0.5000       1000.    
   4    1000.      0.5000      0.5000      0.5000      0.5000      0.5000      0.5000      0.5000      0.5000       1000.    
   5    1000.      0.5000      0.5000      0.5000      0.5000      0.5000      0.5000      0.5000      0.5000       1000.    
   6    1000.      0.5000      0.5000      0.5000      0.5000      0.5000      0.5000      0.5000      0.5000       1000.    
   7    1000.      0.5000      0.5000      0.5000      0.5000      0.5000      0.5000      0.5000      0.5000       1000.    
   8    1000.      0.5000      0.5000      0.5000      0.5000      0.5000      0.5000      0.5000      0.5000       1000.    
   9    1000.      0.5000      0.5000      0.5000      0.5000      0.5000      0.5000      0.5000      0.5000       1000.    
  10    1000.       1000.       1000.       1000.       1000.       1000.       1000.       1000.       1000.       1000.    

 VERT HYD COND /THICKNESS =  3.000000E-06 FOR LAYER   2

     PRIMARY STORAGE COEF =  2.620000E-04 FOR LAYER   3

     TRANSMIS. ALONG ROWS =   1000.00     FOR LAYER   3


     0 Well parameters

  SYSTEM   1 OF NO-DELAY BEDS:

    PRECONSOLIDATION HEAD =  -7.00000     FOR LAYER   1

  SYSTEM   1 OF NO-DELAY BEDS:

 ELASTIC INTERBED STORAGE =  2.100000E-04 FOR LAYER   1

  SYSTEM   1 OF NO-DELAY BEDS:

  VIRGIN INTERBED STORAGE =  9.120000E-03 FOR LAYER   1

  SYSTEM   1 OF NO-DELAY BEDS:

      STARTING COMPACTION =   0.00000     FOR LAYER   1

  SYSTEM   2 OF NO-DELAY BEDS:

    PRECONSOLIDATION HEAD =  -7.00000     FOR LAYER   2

  SYSTEM   2 OF NO-DELAY BEDS:

 ELASTIC INTERBED STORAGE =  1.500000E-04 FOR LAYER   2

  SYSTEM   2 OF NO-DELAY BEDS:



            VIRGIN INTERBED STORAGE FOR LAYER   2
 READING ON UNIT   19 WITH FORMAT: (10F7.0)            

            1           2           3           4           5           6           7           8           9          10
 ........................................................................................................................
   1   7.6000E-03  7.6000E-03  7.6000E-03  7.6000E-03  7.6000E-03  7.6000E-03  7.6000E-03  7.6000E-03  7.6000E-03  7.6000E-03
   2   7.6000E-03  1.5000E-02  1.5000E-02  1.5000E-02  1.5000E-02  1.5000E-02  1.5000E-02  1.5000E-02  1.5000E-02  7.6000E-03
   3   7.6000E-03  1.5000E-02  1.5000E-02  1.5000E-02  1.5000E-02  1.5000E-02  1.5000E-02  1.5000E-02  1.5000E-02  7.6000E-03
   4   7.6000E-03  1.5000E-02  1.5000E-02  1.5000E-02  1.5000E-02  1.5000E-02  1.5000E-02  1.5000E-02  1.5000E-02  7.6000E-03
   5   7.6000E-03  1.5000E-02  1.5000E-02  1.5000E-02  1.5000E-02  1.5000E-02  1.5000E-02  1.5000E-02  1.5000E-02  7.6000E-03
   6   7.6000E-03  1.5000E-02  1.5000E-02  1.5000E-02  1.5000E-02  1.5000E-02  1.5000E-02  1.5000E-02  1.5000E-02  7.6000E-03
   7   7.6000E-03  1.5000E-02  1.5000E-02  1.5000E-02  1.5000E-02  1.5000E-02  1.5000E-02  1.5000E-02  1.5000E-02  7.6000E-03
   8   7.6000E-03  1.5000E-02  1.5000E-02  1.5000E-02  1.5000E-02  1.5000E-02  1.5000E-02  1.5000E-02  1.5000E-02  7.6000E-03
   9   7.6000E-03  1.5000E-02  1.5000E-02  1.5000E-02  1.5000E-02  1.5000E-02  1.5000E-02  1.5000E-02  1.5000E-02  7.6000E-03
  10   7.6000E-03  7.6000E-03  7.6000E-03  7.6000E-03  7.6000E-03  7.6000E-03  7.6000E-03  7.6000E-03  7.6000E-03  7.6000E-03

  SYSTEM   2 OF NO-DELAY BEDS:

      STARTING COMPACTION =   0.00000     FOR LAYER   2

  SYSTEM   3 OF NO-DELAY BEDS:

    PRECONSOLIDATION HEAD =  -7.00000     FOR LAYER   3

  SYSTEM   3 OF NO-DELAY BEDS:

 ELASTIC INTERBED STORAGE =  4.200000E-04 FOR LAYER   3

  SYSTEM   3 OF NO-DELAY BEDS:

  VIRGIN INTERBED STORAGE =  1.824000E-02 FOR LAYER   3

  SYSTEM   3 OF NO-DELAY BEDS:

      STARTING COMPACTION =   0.00000     FOR LAYER   3

 MATERIAL PROPERTIES OF INTERBEDS WITH DELAY PROPERTIES

   ZONE        HYDRAULIC           ELASTIC            INELASTIC       
  NUMBER      CONDUCTIVITY     SPECIFIC STORAGE    SPECIFIC STORAGE   
 ---------------------------------------------------------------------
    1        0.10000E-05         0.60000E-05         0.60000E-03

  SYSTEM   1 OF DELAY BEDS:



                DELAY STARTING HEAD FOR LAYER   1
 READING ON UNIT   19 WITH FORMAT: (10F7.0)            

            1           2           3           4           5           6           7           8           9          10
 ........................................................................................................................
   1    22.66       22.31       21.66       21.25       21.05       21.05       21.25       21.66       22.31       22.66    
   2    21.62       21.13       20.71       20.42       20.27       20.27       20.42       20.71       21.13       21.62    
   3    20.11       19.63       19.27       19.03       18.91       18.91       19.03       19.27       19.63       20.11    
   4    18.05       17.62       17.33       17.14       17.05       17.05       17.14       17.33       17.62       18.05    
   5    15.12       15.03       14.93       14.85       14.81       14.81       14.85       14.93       15.03       15.12    
   6    12.47       12.44       12.40       12.37       12.35       12.35       12.37       12.40       12.44       12.47    
   7    9.870       9.845       9.805       9.766       9.742       9.742       9.766       9.805       9.845       9.870    
   8    7.297       7.235       7.133       7.029       6.970       6.970       7.029       7.133       7.235       7.297    
   9    4.891       4.709       4.383       4.017       3.864       3.864       4.017       4.383       4.709       4.891    
  10    3.135       2.680       1.696       0.000       0.000       0.000       0.000       1.696       2.680       3.135    

  SYSTEM   1 OF DELAY BEDS:

    DELAY PRECOLSOL. HEAD =  -7.00000     FOR LAYER   1

  SYSTEM   1 OF DELAY BEDS:

 DELAY INITIAL COMPACTION =   0.00000     FOR LAYER   1

  SYSTEM   1 OF DELAY BEDS:

 DELAY INTERBED THICKNESS =   5.89400     FOR LAYER   1

  SYSTEM   1 OF DELAY BEDS:

    MATERIAL ZONE INDICES =              1 FOR LAYER   1

  SYSTEM   2 OF DELAY BEDS:



                DELAY STARTING HEAD FOR LAYER   3
 READING ON UNIT   19 WITH FORMAT: (10F7.0)            

            1           2           3           4           5           6           7           8           9          10
 ........................................................................................................................
   1    13.29       13.30       13.30       13.30       13.30       13.30       13.30       13.30       13.30       13.29    
   2    13.27       13.27       13.28       13.28       13.28       13.28       13.28       13.28       13.27       13.27    
   3    13.21       13.22       13.22       13.22       13.22       13.22       13.22       13.22       13.22       13.21    
   4    13.13       13.13       13.13       13.14       13.14       13.14       13.14       13.13       13.13       13.13    
   5    13.02       13.03       13.03       13.03       13.03       13.03       13.03       13.03       13.03       13.02    
   6    12.91       12.91       12.91       12.91       12.91       12.91       12.91       12.91       12.91       12.91    
   7    12.80       12.80       12.80       12.80       12.80       12.80       12.80       12.80       12.80       12.80    
   8    12.71       12.70       12.70       12.70       12.70       12.70       12.70       12.70       12.70       12.71    
   9    12.64       12.64       12.63       12.63       12.63       12.63       12.63       12.63       12.64       12.64    
  10    12.61       12.61       12.61       12.61       12.60       12.60       12.61       12.61       12.61       12.61    

  SYSTEM   2 OF DELAY BEDS:

    DELAY PRECOLSOL. HEAD =  -7.00000     FOR LAYER   3

  SYSTEM   2 OF DELAY BEDS:

 DELAY INITIAL COMPACTION =   0.00000     FOR LAYER   3

  SYSTEM   2 OF DELAY BEDS:

 DELAY INTERBED THICKNESS =   5.08000     FOR LAYER   3

  SYSTEM   2 OF DELAY BEDS:

    MATERIAL ZONE INDICES =              1 FOR LAYER   3

             SUBSIDENCE PRINT FORMAT IS NUMBER   0
                 UNIT FOR SAVING SUBSIDENCE IS  41
    COMPACTION BY LAYER PRINT FORMAT IS NUMBER   0
        UNIT FOR SAVING COMPACTION BY LAYER IS  42
   COMPACTION BY SYSTEM PRINT FORMAT IS NUMBER   0
       UNIT FOR SAVING COMPACTION BY SYSTEM IS  42
  VERTICAL DISPLACEMENT PRINT FORMAT IS NUMBER   0
      UNIT FOR SAVING VERTICAL DISPLACEMENT IS  41
 NO-DELAY CRITICAL HEAD PRINT FORMAT IS NUMBER   0
     UNIT FOR SAVING NO-DELAY CRITICAL HEAD IS  43
    DELAY CRITICAL HEAD PRINT FORMAT IS NUMBER   0
        UNIT FOR SAVING DELAY CRITICAL HEAD IS  43
1
                            STRESS PERIOD NO.    1, LENGTH =   1.000000    
                            -----------------------------------------------

                              NUMBER OF TIME STEPS =     1

                               MULTIPLIER FOR DELT =     1.000

                            INITIAL TIME STEP SIZE =   1.000000    

 WELL NO.  LAYER   ROW   COL   STRESS RATE         
 --------------------------------------------------
      1      1      1      1       3000.    
      2      1      1      2       3000.    
      3      1      1      9       3000.    
      4      1      1     10       3000.    
      5      1      2      1       3000.    
      6      1      2     10       3000.    
      7      1      3      1       3000.    
      8      1      3     10       3000.    
      9      1      4      1       3000.    
     10      1      4     10       3000.    

     10 WELLS
 
 SOLVING FOR HEAD 

 AVERAGE SEED = 0.00104234
 MINIMUM SEED = 0.00001229

     5 ITERATION PARAMETERS CALCULATED FROM AVERAGE SEED:

  0.000000E+00 0.820319E+00 0.967715E+00 0.994199E+00 0.998958E+00

    46 ITERATIONS FOR TIME STEP   1 IN STRESS PERIOD    1

 MAXIMUM HEAD CHANGE FOR EACH ITERATION:

    HEAD CHANGE   HEAD CHANGE   HEAD CHANGE   HEAD CHANGE   HEAD CHANGE
  LAYER,ROW,COL LAYER,ROW,COL LAYER,ROW,COL LAYER,ROW,COL LAYER,ROW,COL
 ----------------------------------------------------------------------
      2.671         2.508         5.470         11.54         8.275    
  (  1,  1, 10) (  1,  1, 10) (  1,  1,  1) (  1,  1, 10) (  3,  1,  1)
      2.524         1.287       -0.9950        -2.001        -1.404    
  (  2,  2,  9) (  2, 10,  2) (  1,  7,  3) (  1,  1,  1) (  1,  1,  1)
     0.6811        0.3993        0.2702        0.7622        0.9893    
  (  2,  6,  1) (  2,  1,  2) (  1,  1,  1) (  1,  1, 10) (  3,  1,  1)
    -0.1359        0.9522E-01   -0.7821E-01   -0.1634       -0.1033    
  (  2,  9,  7) (  2, 10,  2) (  1,  7,  3) (  1,  1,  1) (  1,  1,  1)
     0.5098E-01    0.3160E-01    0.2107E-01    0.5952E-01    0.9494E-01
  (  2,  9,  6) (  2,  1,  2) (  1,  1,  1) (  1,  1, 10) (  3,  1,  1)
    -0.1183E-01    0.7216E-02   -0.6377E-02   -0.1338E-01   -0.7856E-02
  (  2,  9,  7) (  2, 10,  2) (  1,  7,  3) (  1,  1,  1) (  1,  1,  1)
     0.4081E-02    0.2552E-02    0.1665E-02    0.4682E-02    0.8297E-02
  (  2,  9,  6) (  2,  1,  2) (  1,  1,  1) (  1,  1, 10) (  3,  1,  1)
    -0.9887E-03    0.5632E-03   -0.5117E-03   -0.1076E-02   -0.6005E-03
  (  2,  9,  7) (  2, 10,  2) (  1,  7,  3) (  1,  1,  1) (  1,  1,  1)
     0.3225E-03    0.2046E-03    0.1309E-03    0.3672E-03    0.6956E-03
  (  2,  9,  6) (  2,  1,  2) (  1,  1,  1) (  1,  1, 10) (  3,  1,  1)
    -0.8063E-04
  (  2,  9,  7)


 OUTPUT CONTROL FOR STRESS PERIOD    1   TIME STEP   1
    PRINT BUDGET
    PRINT HEAD FOR ALL LAYERS
    SAVE HEAD FOR ALL LAYERS
    SAVE DRAWDOWN FOR ALL LAYERS
1
              HEAD IN LAYER   1 AT END OF TIME STEP   1 IN STRESS PERIOD    1
  ---------------------------------------------------------------------------

           1       2       3       4       5       6       7       8       9      10
 ...................................................................................
   1    22.66   22.31   21.66   21.25   21.05   21.05   21.25   21.66   22.31   22.66
   2    21.62   21.13   20.71   20.42   20.27   20.27   20.42   20.71   21.13   21.62
   3    20.11   19.63   19.27   19.03   18.91   18.91   19.03   19.27   19.63   20.11
   4    18.05   17.62   17.33   17.14   17.05   17.05   17.14   17.33   17.62   18.05
   5    15.12   15.03   14.93   14.85   14.81   14.81   14.85   14.93   15.03   15.12
   6    12.47   12.44   12.40   12.37   12.35   12.35   12.37   12.40   12.44   12.47
   7     9.87    9.84    9.81    9.77    9.74    9.74    9.77    9.81    9.84    9.87
   8     7.30    7.24    7.13    7.03    6.97    6.97    7.03    7.13    7.24    7.30
   9     4.89    4.71    4.38    4.02    3.86    3.86    4.02    4.38    4.71    4.89
  10     3.14    2.68    1.70    0.00    0.00    0.00    0.00    1.70    2.68    3.14
1
              HEAD IN LAYER   2 AT END OF TIME STEP   1 IN STRESS PERIOD    1
  ---------------------------------------------------------------------------

           1       2       3       4       5       6       7       8       9      10
 ...................................................................................
   1    14.85   14.91   14.96   14.99   15.00   15.00   14.99   14.96   14.91   14.85
   2    14.53   16.75   16.88   16.77   16.70   16.70   16.77   16.88   16.75   14.53
   3    14.14   16.10   16.22   16.12   16.06   16.06   16.12   16.22   16.10   14.14
   4    13.67   15.13   15.21   15.14   15.09   15.09   15.14   15.21   15.13   13.67
   5    13.15   13.91   13.97   13.94   13.92   13.92   13.94   13.97   13.91   13.15
   6    12.61   12.67   12.66   12.64   12.63   12.63   12.64   12.66   12.67   12.61
   7    12.06   11.42   11.31   11.28   11.27   11.27   11.28   11.31   11.42   12.06
   8    11.54   10.18    9.93    9.87    9.84    9.84    9.87    9.93   10.18   11.54
   9    11.05    9.06    8.63    8.44    8.37    8.37    8.44    8.63    9.06   11.05
  10    10.63   10.55   10.47   10.42   10.40   10.40   10.42   10.47   10.55   10.63
1
              HEAD IN LAYER   3 AT END OF TIME STEP   1 IN STRESS PERIOD    1
  ---------------------------------------------------------------------------

           1       2       3       4       5       6       7       8       9      10
 ...................................................................................
   1    13.29   13.29   13.30   13.30   13.30   13.30   13.30   13.30   13.29   13.29
   2    13.27   13.27   13.28   13.28   13.28   13.28   13.28   13.28   13.27   13.27
   3    13.21   13.22   13.22   13.22   13.22   13.22   13.22   13.22   13.22   13.21
   4    13.13   13.13   13.13   13.14   13.14   13.14   13.14   13.13   13.13   13.13
   5    13.02   13.03   13.03   13.03   13.03   13.03   13.03   13.03   13.03   13.02
   6    12.91   12.91   12.91   12.91   12.91   12.91   12.91   12.91   12.91   12.91
   7    12.80   12.80   12.80   12.80   12.80   12.80   12.80   12.80   12.80   12.80
   8    12.71   12.70   12.70   12.70   12.70   12.70   12.70   12.70   12.70   12.71
   9    12.64   12.64   12.63   12.63   12.63   12.63   12.63   12.63   12.64   12.64
  10    12.61   12.61   12.61   12.61   12.61   12.61   12.61   12.61   12.61   12.61

 HEAD WILL BE SAVED ON UNIT   21 AT END OF TIME STEP   1, STRESS PERIOD    1

 DRAWDOWN WILL BE SAVED ON UNIT   22 AT END OF TIME STEP   1, STRESS PERIOD    1
1
  VOLUMETRIC BUDGET FOR ENTIRE MODEL AT END OF TIME STEP  1 IN STRESS PERIOD   1
  ------------------------------------------------------------------------------

     CUMULATIVE VOLUMES      L**3       RATES FOR THIS TIME STEP      L**3/T
     ------------------                 ------------------------

           IN:                                      IN:
           ---                                      ---
             STORAGE =           0.0000               STORAGE =           0.0000
       CONSTANT HEAD =           0.0000         CONSTANT HEAD =           0.0000
               WELLS =       30000.0000                 WELLS =       30000.0000
    INST. IB STORAGE =           0.0000      INST. IB STORAGE =           0.0000
    DELAY IB STORAGE =           0.0000      DELAY IB STORAGE =           0.0000

            TOTAL IN =       30000.0000              TOTAL IN =       30000.0000

          OUT:                                     OUT:
          ----                                     ----
             STORAGE =           0.0000               STORAGE =           0.0000
       CONSTANT HEAD =       30000.4180         CONSTANT HEAD =       30000.4180
               WELLS =           0.0000                 WELLS =           0.0000
    INST. IB STORAGE =           0.0000      INST. IB STORAGE =           0.0000
    DELAY IB STORAGE =           0.0000      DELAY IB STORAGE =           0.0000

           TOTAL OUT =       30000.4180             TOTAL OUT =       30000.4180

            IN - OUT =          -0.4180              IN - OUT =          -0.4180

 PERCENT DISCREPANCY =           0.00     PERCENT DISCREPANCY =           0.00






          TIME SUMMARY AT END OF TIME STEP   1 IN STRESS PERIOD    1
                    SECONDS     MINUTES      HOURS       DAYS        YEARS
                    -----------------------------------------------------------
   TIME STEP LENGTH  86400.      1440.0      24.000      1.0000     2.73785E-03
 STRESS PERIOD TIME  86400.      1440.0      24.000      1.0000     2.73785E-03
         TOTAL TIME  86400.      1440.0      24.000      1.0000     2.73785E-03
1
1
                            STRESS PERIOD NO.    2, LENGTH =   365.3000    
                            -----------------------------------------------

                              NUMBER OF TIME STEPS =     6

                               MULTIPLIER FOR DELT =     1.300

                            INITIAL TIME STEP SIZE =   28.63744    

 WELL NO.  LAYER   ROW   COL   STRESS RATE         
 --------------------------------------------------
      1      1      1      1       3000.    
      2      1      1      2       3000.    
      3      1      1      9       3000.    
      4      1      1     10       3000.    
      5      1      2      1       3000.    
      6      1      2     10       3000.    
      7      1      3      1       3000.    
      8      1      3     10       3000.    
      9      1      4      1       3000.    
     10      1      4     10       3000.    
     11      3      3      6     -0.1400E+05
     12      3      3      7      -8000.    
     13      3      4      6      -5000.    
     14      3      4      7      -3000.    

     14 WELLS
 
 SOLVING FOR HEAD 

    31 ITERATIONS FOR TIME STEP   1 IN STRESS PERIOD    2

 OUTPUT CONTROL FOR STRESS PERIOD    2   TIME STEP   1
    SAVE HEAD FOR ALL LAYERS

 HEAD WILL BE SAVED ON UNIT   21 AT END OF TIME STEP   1, STRESS PERIOD    2
 
 SOLVING FOR HEAD 
    27 ITERATIONS FOR TIME STEP   2 IN STRESS PERIOD    2

 OUTPUT CONTROL FOR STRESS PERIOD    2   TIME STEP   2
    SAVE HEAD FOR ALL LAYERS

 HEAD WILL BE SAVED ON UNIT   21 AT END OF TIME STEP   2, STRESS PERIOD    2
 
 SOLVING FOR HEAD 
    31 ITERATIONS FOR TIME STEP   3 IN STRESS PERIOD    2

 OUTPUT CONTROL FOR STRESS PERIOD    2   TIME STEP   3
    SAVE HEAD FOR ALL LAYERS

 HEAD WILL BE SAVED ON UNIT   21 AT END OF TIME STEP   3, STRESS PERIOD    2
 
 SOLVING FOR HEAD 
    31 ITERATIONS FOR TIME STEP   4 IN STRESS PERIOD    2

 OUTPUT CONTROL FOR STRESS PERIOD    2   TIME STEP   4
    SAVE HEAD FOR ALL LAYERS

 HEAD WILL BE SAVED ON UNIT   21 AT END OF TIME STEP   4, STRESS PERIOD    2
 
 SOLVING FOR HEAD 
    27 ITERATIONS FOR TIME STEP   5 IN STRESS PERIOD    2

 MAXIMUM HEAD CHANGE FOR EACH ITERATION:

    HEAD CHANGE   HEAD CHANGE   HEAD CHANGE   HEAD CHANGE   HEAD CHANGE
  LAYER,ROW,COL LAYER,ROW,COL LAYER,ROW,COL LAYER,ROW,COL LAYER,ROW,COL
 ----------------------------------------------------------------------
     -1.228       -0.9218        -2.118        -1.319        0.4533    
  (  2,  3,  6) (  3, 10,  1) (  3, 10, 10) (  3, 10,  1) (  2,  1, 10)
    -0.3785        0.7582E-01    0.2026        0.2451        0.4675E-01
  (  2,  1, 10) (  3, 10,  3) (  3, 10,  1) (  3, 10, 10) (  3, 10, 10)
     0.3526E-01    0.2473E-01    0.4544E-01    0.4686E-01    0.1964E-01
  (  2,  3,  1) (  2,  1,  2) (  3, 10, 10) (  3, 10,  1) (  3, 10,  1)
     0.8253E-02    0.2806E-02    0.4311E-02    0.7834E-02    0.1805E-02
  (  2,  2,  1) (  3,  1,  1) (  3, 10,  1) (  3, 10, 10) (  3, 10,  1)
    -0.5631E-03    0.5014E-03    0.1413E-02    0.1802E-02    0.8626E-03
  (  2,  9,  1) (  3,  2,  1) (  3, 10, 10) (  3, 10,  1) (  3,  9,  1)
     0.1907E-03   -0.7819E-04
  (  2,  2,  1) (  2, 10,  2)


 OUTPUT CONTROL FOR STRESS PERIOD    2   TIME STEP   5
    SAVE HEAD FOR ALL LAYERS

 HEAD WILL BE SAVED ON UNIT   21 AT END OF TIME STEP   5, STRESS PERIOD    2
 
 SOLVING FOR HEAD 
    27 ITERATIONS FOR TIME STEP   6 IN STRESS PERIOD    2

 MAXIMUM HEAD CHANGE FOR EACH ITERATION:

    HEAD CHANGE   HEAD CHANGE   HEAD CHANGE   HEAD CHANGE   HEAD CHANGE
  LAYER,ROW,COL LAYER,ROW,COL LAYER,ROW,COL LAYER,ROW,COL LAYER,ROW,COL
 ----------------------------------------------------------------------
    -0.8302       -0.6394        -1.438       -0.8136        0.3135    
  (  3,  3,  7) (  3, 10,  1) (  3, 10, 10) (  3, 10,  1) (  2,  1, 10)
    -0.2842        0.4136E-01    0.1174        0.1427        0.2477E-01
  (  2,  3,  1) (  3, 10, 10) (  3, 10,  1) (  3, 10, 10) (  3, 10, 10)
     0.2374E-01    0.1615E-01    0.2711E-01    0.2720E-01    0.9350E-02
  (  2,  3,  1) (  2,  1,  2) (  3, 10, 10) (  3, 10,  1) (  3, 10,  1)
     0.5743E-02    0.1473E-02    0.3905E-02    0.5267E-02    0.1072E-02
  (  2,  2,  1) (  3, 10, 10) (  3, 10,  1) (  3, 10, 10) (  3, 10, 10)
    -0.5078E-03    0.3951E-03    0.1099E-02    0.1185E-02    0.5516E-03
  (  2,  8,  1) (  3, 10,  1) (  3, 10,  6) (  3, 10,  1) (  3, 10,  1)
     0.2476E-03   -0.7249E-04
  (  2,  3,  1) (  2, 10,  2)


 OUTPUT CONTROL FOR STRESS PERIOD    2   TIME STEP   6
    PRINT BUDGET
    PRINT HEAD FOR ALL LAYERS
    SAVE HEAD FOR ALL LAYERS
    SAVE DRAWDOWN FOR ALL LAYERS
1
              HEAD IN LAYER   1 AT END OF TIME STEP   6 IN STRESS PERIOD    2
  ---------------------------------------------------------------------------

           1       2       3       4       5       6       7       8       9      10
 ...................................................................................
   1    22.58   22.23   21.58   21.16   20.96   20.96   21.16   21.58   22.23   22.58
   2    21.54   21.05   20.63   20.33   20.18   20.18   20.33   20.63   21.04   21.54
   3    20.03   19.55   19.18   18.94   18.82   18.82   18.94   19.18   19.54   20.03
   4    17.97   17.54   17.25   17.06   16.97   16.97   17.06   17.24   17.54   17.97
   5    15.04   14.96   14.85   14.77   14.73   14.73   14.77   14.85   14.95   15.04
   6    12.40   12.37   12.33   12.30   12.28   12.28   12.30   12.33   12.37   12.40
   7     9.81    9.78    9.74    9.70    9.68    9.68    9.70    9.74    9.78    9.80
   8     7.24    7.18    7.08    6.97    6.91    6.91    6.97    7.08    7.18    7.24
   9     4.84    4.66    4.34    3.97    3.82    3.82    3.97    4.34    4.66    4.84
  10     3.09    2.64    1.67    0.00    0.00    0.00    0.00    1.67    2.64    3.09
1
              HEAD IN LAYER   2 AT END OF TIME STEP   6 IN STRESS PERIOD    2
  ---------------------------------------------------------------------------

           1       2       3       4       5       6       7       8       9      10
 ...................................................................................
   1     5.13    5.18    5.21    5.22    5.22    5.22    5.20    5.17    5.14    5.08
   2     4.89    6.63    6.55    6.22    5.87    5.61    5.71    6.04    6.22    4.81
   3     4.58    5.93    5.69    5.08    4.12    2.71    3.15    4.45    5.17    4.48
   4     4.22    5.18    4.99    4.57    3.99    3.28    3.48    4.17    4.61    4.11
   5     3.81    4.31    4.25    4.08    3.90    3.77    3.79    3.93    4.02    3.71
   6     3.39    3.49    3.45    3.38    3.31    3.27    3.26    3.29    3.32    3.30
   7     2.96    2.64    2.56    2.51    2.47    2.45    2.45    2.47    2.54    2.89
   8     2.55    1.71    1.54    1.46    1.42    1.41    1.43    1.49    1.65    2.49
   9     2.16    0.78    0.45    0.26    0.18    0.18    0.25    0.42    0.75    2.12
  10     1.81    1.74    1.68    1.64    1.61    1.61    1.63    1.67    1.73    1.80
1
              HEAD IN LAYER   3 AT END OF TIME STEP   6 IN STRESS PERIOD    2
  ---------------------------------------------------------------------------

           1       2       3       4       5       6       7       8       9      10
 ...................................................................................
   1    -7.24   -7.31   -7.45   -7.64   -7.85   -8.00   -8.02   -7.94   -7.83   -7.76
   2    -7.36   -7.50   -7.79   -8.25   -8.83   -9.37   -9.31   -8.86   -8.45   -8.23
   3    -7.46   -7.70   -8.26   -9.31  -11.18  -14.49  -13.51  -10.83   -9.42   -8.81
   4    -7.25   -7.41   -7.79   -8.49   -9.59  -11.20  -10.81   -9.47   -8.65   -8.26
   5    -6.78   -6.87   -7.04   -7.29   -7.58   -7.84   -7.82   -7.63   -7.44   -7.33
   6    -6.13   -6.17   -6.25   -6.36   -6.47   -6.55   -6.57   -6.55   -6.50   -6.48
   7    -5.51   -5.53   -5.57   -5.61   -5.66   -5.69   -5.71   -5.72   -5.71   -5.71
   8    -5.00   -5.02   -5.03   -5.06   -5.08   -5.10   -5.11   -5.12   -5.12   -5.12
   9    -4.66   -4.66   -4.68   -4.69   -4.70   -4.71   -4.72   -4.73   -4.73   -4.73
  10    -4.48   -4.48   -4.49   -4.50   -4.50   -4.51   -4.52   -4.52   -4.53   -4.53

 HEAD WILL BE SAVED ON UNIT   21 AT END OF TIME STEP   6, STRESS PERIOD    2

 DRAWDOWN WILL BE SAVED ON UNIT   22 AT END OF TIME STEP   6, STRESS PERIOD    2
1
  VOLUMETRIC BUDGET FOR ENTIRE MODEL AT END OF TIME STEP  6 IN STRESS PERIOD   2
  ------------------------------------------------------------------------------

     CUMULATIVE VOLUMES      L**3       RATES FOR THIS TIME STEP      L**3/T
     ------------------                 ------------------------

           IN:                                      IN:
           ---                                      ---
             STORAGE =     2510503.0000               STORAGE =        5953.6387
       CONSTANT HEAD =           0.0000         CONSTANT HEAD =           0.0000
               WELLS =    10989000.0000                 WELLS =       30000.0000
    INST. IB STORAGE =     4623390.5000      INST. IB STORAGE =       12993.5908
    DELAY IB STORAGE =     3701674.0000      DELAY IB STORAGE =       10445.6309

            TOTAL IN =    21824568.0000              TOTAL IN =       59392.8594

          OUT:                                     OUT:
          ----                                     ----
             STORAGE =           0.0000               STORAGE =           0.0000
       CONSTANT HEAD =    10865471.0000         CONSTANT HEAD =       29392.6133
               WELLS =    10959000.0000                 WELLS =       30000.0000
    INST. IB STORAGE =           0.0000      INST. IB STORAGE =           0.0000
    DELAY IB STORAGE =           0.0000      DELAY IB STORAGE =           0.0000

           TOTAL OUT =    21824472.0000             TOTAL OUT =       59392.6133

            IN - OUT =          96.0000              IN - OUT =           0.2461

 PERCENT DISCREPANCY =           0.00     PERCENT DISCREPANCY =           0.00






          TIME SUMMARY AT END OF TIME STEP   6 IN STRESS PERIOD    2
                    SECONDS     MINUTES      HOURS       DAYS        YEARS
                    -----------------------------------------------------------
   TIME STEP LENGTH 9.18681E+06 1.53113E+05  2551.9      106.33     0.29111    
 STRESS PERIOD TIME 3.15619E+07 5.26032E+05  8767.2      365.30      1.0001    
         TOTAL TIME 3.16483E+07 5.27472E+05  8791.2      366.30      1.0029    
1

                               VOLUMETRIC BUDGET FOR SYSTEMS OF DELAY INTERBEDS
                                          AT END OF TIME STEP  6 IN STRESS PERIOD  2

          |   C U M U L A T I V E   V O L U M E S   L**3           | R A T E S   F O R  T H I S  T I M E  S T E P   L**3/T  |
   SYSTEM |    CHANGE IN     BOUNDARY                    PERCENT   |    CHANGE IN     BOUNDARY                    PERCENT   |
   NUMBER |     STORAGE        FLOW           SUM      DISCREPANCY |     STORAGE        FLOW           SUM      DISCREPANCY |
  --------|--------------------------------------------------------|--------------------------------------------------------|
      1     2926.5        -2926.5         0.0000         0.0000         11.761        -11.761       -0.38147E-05   -0.32434E-04
      2    0.36987E+07   -0.36987E+07    -1.0000       -0.27036E-04     10434.        -10434.       -0.29297E-02   -0.28079E-04
  --------|--------------------------------------------------------|--------------------------------------------------------|
 TOTALS:    0.37017E+07   -0.37017E+07    -1.0000       -0.27015E-04     10446.        -10446.       -0.29297E-02   -0.28047E-04
1
                            STRESS PERIOD NO.    3, LENGTH =   365.3000    
                            -----------------------------------------------

                              NUMBER OF TIME STEPS =     6

                               MULTIPLIER FOR DELT =     1.300

                            INITIAL TIME STEP SIZE =   28.63744    

 REUSING NON-PARAMETER WELLS FROM LAST STRESS PERIOD

     14 WELLS
 
 SOLVING FOR HEAD 

    31 ITERATIONS FOR TIME STEP   1 IN STRESS PERIOD    3

 OUTPUT CONTROL FOR STRESS PERIOD    3   TIME STEP   1
    SAVE HEAD FOR ALL LAYERS

 HEAD WILL BE SAVED ON UNIT   21 AT END OF TIME STEP   1, STRESS PERIOD    3
 
 SOLVING FOR HEAD 
    30 ITERATIONS FOR TIME STEP   2 IN STRESS PERIOD    3

 OUTPUT CONTROL FOR STRESS PERIOD    3   TIME STEP   2
    SAVE HEAD FOR ALL LAYERS

 HEAD WILL BE SAVED ON UNIT   21 AT END OF TIME STEP   2, STRESS PERIOD    3
 
 SOLVING FOR HEAD 
    30 ITERATIONS FOR TIME STEP   3 IN STRESS PERIOD    3

 OUTPUT CONTROL FOR STRESS PERIOD    3   TIME STEP   3
    SAVE HEAD FOR ALL LAYERS

 HEAD WILL BE SAVED ON UNIT   21 AT END OF TIME STEP   3, STRESS PERIOD    3
 
 SOLVING FOR HEAD 
    30 ITERATIONS FOR TIME STEP   4 IN STRESS PERIOD    3

 OUTPUT CONTROL FOR STRESS PERIOD    3   TIME STEP   4
    SAVE HEAD FOR ALL LAYERS

 HEAD WILL BE SAVED ON UNIT   21 AT END OF TIME STEP   4, STRESS PERIOD    3
 
 SOLVING FOR HEAD 
    29 ITERATIONS FOR TIME STEP   5 IN STRESS PERIOD    3

 MAXIMUM HEAD CHANGE FOR EACH ITERATION:

    HEAD CHANGE   HEAD CHANGE   HEAD CHANGE   HEAD CHANGE   HEAD CHANGE
  LAYER,ROW,COL LAYER,ROW,COL LAYER,ROW,COL LAYER,ROW,COL LAYER,ROW,COL
 ----------------------------------------------------------------------
     0.2725       -0.1618       -0.2269       -0.6854E-01   -0.7222E-01
  (  3,  3,  7) (  3,  3,  7) (  3,  3,  6) (  3,  2,  9) (  3,  3,  6)
    -0.4158E-01   -0.5048E-01   -0.3930E-01   -0.2440E-01   -0.1718E-01
  (  2,  6,  1) (  3,  3,  6) (  3,  3,  7) (  3,  3,  6) (  3,  3,  7)
    -0.9537E-02   -0.1136E-01   -0.9005E-02   -0.5697E-02   -0.4167E-02
  (  3,  3,  6) (  3,  3,  7) (  3,  3,  6) (  3,  3,  6) (  3,  3,  6)
    -0.2355E-02   -0.2711E-02   -0.2133E-02   -0.1433E-02   -0.9997E-03
  (  3,  3,  6) (  3,  3,  6) (  3,  3,  6) (  3,  3,  6) (  3,  3,  6)
    -0.6255E-03   -0.6640E-03   -0.5494E-03   -0.3596E-03   -0.2646E-03
  (  3,  3,  6) (  3,  3,  6) (  3,  3,  6) (  3,  3,  6) (  3,  3,  6)
    -0.1597E-03   -0.1324E-03   -0.1015E-03   -0.5206E-04
  (  3,  3,  6) (  3,  3,  6) (  3,  3,  6) (  3,  3,  6)


 OUTPUT CONTROL FOR STRESS PERIOD    3   TIME STEP   5
    SAVE HEAD FOR ALL LAYERS

 HEAD WILL BE SAVED ON UNIT   21 AT END OF TIME STEP   5, STRESS PERIOD    3
 
 SOLVING FOR HEAD 
    28 ITERATIONS FOR TIME STEP   6 IN STRESS PERIOD    3

 MAXIMUM HEAD CHANGE FOR EACH ITERATION:

    HEAD CHANGE   HEAD CHANGE   HEAD CHANGE   HEAD CHANGE   HEAD CHANGE
  LAYER,ROW,COL LAYER,ROW,COL LAYER,ROW,COL LAYER,ROW,COL LAYER,ROW,COL
 ----------------------------------------------------------------------
    -0.2458       -0.1921       -0.1404       -0.8993E-01   -0.5978E-01
  (  3,  1, 10) (  3,  3,  6) (  3, 10, 10) (  3,  3,  6) (  3,  3,  6)
    -0.4897E-01   -0.3959E-01   -0.3331E-01   -0.1923E-01   -0.1325E-01
  (  2,  6,  1) (  3,  3,  7) (  3,  3,  7) (  3,  3,  6) (  3,  3,  7)
    -0.6709E-02   -0.8599E-02   -0.7121E-02   -0.4365E-02   -0.3075E-02
  (  3,  3,  6) (  3,  3,  7) (  3,  3,  6) (  3,  3,  6) (  3,  3,  6)
    -0.1650E-02   -0.1995E-02   -0.1671E-02   -0.1075E-02   -0.7311E-03
  (  3,  3,  6) (  3,  3,  6) (  3,  3,  6) (  3,  3,  6) (  3,  3,  6)
    -0.4363E-03   -0.4798E-03   -0.4380E-03   -0.2758E-03   -0.1912E-03
  (  3,  3,  6) (  3,  3,  6) (  3,  3,  6) (  3,  3,  6) (  3,  3,  6)
    -0.1116E-03   -0.1001E-03   -0.6141E-04
  (  3,  3,  6) (  3,  3,  6) (  3,  3,  6)


 OUTPUT CONTROL FOR STRESS PERIOD    3   TIME STEP   6
    PRINT BUDGET
    PRINT HEAD FOR ALL LAYERS
    SAVE HEAD FOR ALL LAYERS
    SAVE DRAWDOWN FOR ALL LAYERS
1
              HEAD IN LAYER   1 AT END OF TIME STEP   6 IN STRESS PERIOD    3
  ---------------------------------------------------------------------------

           1       2       3       4       5       6       7       8       9      10
 ...................................................................................
   1    22.46   22.12   21.46   21.05   20.85   20.84   21.05   21.46   22.12   22.46
   2    21.43   20.93   20.51   20.22   20.07   20.07   20.21   20.51   20.93   21.42
   3    19.92   19.43   19.07   18.82   18.70   18.70   18.82   19.06   19.43   19.91
   4    17.86   17.43   17.13   16.94   16.85   16.85   16.94   17.13   17.42   17.85
   5    14.93   14.84   14.74   14.66   14.62   14.62   14.66   14.74   14.84   14.93
   6    12.29   12.27   12.23   12.19   12.17   12.17   12.19   12.22   12.26   12.29
   7     9.71    9.68    9.64    9.60    9.58    9.58    9.60    9.64    9.68    9.70
   8     7.15    7.09    6.99    6.89    6.83    6.83    6.89    6.99    7.09    7.15
   9     4.76    4.59    4.27    3.92    3.77    3.77    3.92    4.27    4.59    4.76
  10     3.03    2.59    1.64    0.00    0.00    0.00    0.00    1.64    2.59    3.03
1
              HEAD IN LAYER   2 AT END OF TIME STEP   6 IN STRESS PERIOD    3
  ---------------------------------------------------------------------------

           1       2       3       4       5       6       7       8       9      10
 ...................................................................................
   1     3.92    3.97    3.99    4.00    4.00    3.99    3.97    3.94    3.90    3.84
   2     3.68    5.61    5.50    5.09    4.67    4.35    4.43    4.77    4.95    3.55
   3     3.36    4.84    4.55    3.82    2.75    1.26    1.69    3.02    3.79    3.20
   4     2.98    4.09    3.85    3.33    2.66    1.88    2.06    2.77    3.26    2.82
   5     2.56    3.25    3.17    2.95    2.72    2.54    2.55    2.70    2.80    2.41
   6     2.12    2.35    2.31    2.23    2.15    2.09    2.09    2.12    2.14    1.99
   7     1.67    1.34    1.26    1.21    1.18    1.16    1.16    1.18    1.25    1.56
   8     1.22    0.26    0.07    0.00   -0.04   -0.05   -0.03    0.03    0.21    1.15
   9     0.81   -0.76   -1.12   -1.30   -1.38   -1.39   -1.32   -1.14   -0.79    0.76
  10     0.44    0.37    0.30    0.26    0.23    0.23    0.25    0.29    0.35    0.42
1
              HEAD IN LAYER   3 AT END OF TIME STEP   6 IN STRESS PERIOD    3
  ---------------------------------------------------------------------------

           1       2       3       4       5       6       7       8       9      10
 ...................................................................................
   1    -8.60   -8.73   -8.96   -9.27   -9.59   -9.83   -9.91   -9.85   -9.74   -9.67
   2    -8.84   -9.05   -9.46  -10.07  -10.80  -11.45  -11.45  -11.00  -10.57  -10.34
   3    -9.04   -9.37  -10.08  -11.33  -13.39  -16.85  -15.92  -13.20  -11.75  -11.10
   4    -8.73   -8.99   -9.54  -10.42  -11.71  -13.45  -13.11  -11.74  -10.86  -10.44
   5    -8.11   -8.24   -8.51   -8.88   -9.31   -9.67   -9.70   -9.48   -9.25   -9.11
   6    -7.54   -7.59   -7.70   -7.84   -7.98   -8.09   -8.13   -8.10   -8.06   -8.02
   7    -7.15   -7.17   -7.21   -7.26   -7.31   -7.35   -7.37   -7.37   -7.37   -7.36
   8    -6.94   -6.95   -6.97   -6.99   -7.01   -7.03   -7.03   -7.04   -7.04   -7.04
   9    -6.79   -6.80   -6.81   -6.82   -6.83   -6.84   -6.84   -6.85   -6.85   -6.85
  10    -6.71   -6.71   -6.72   -6.72   -6.73   -6.74   -6.74   -6.75   -6.75   -6.75

 HEAD WILL BE SAVED ON UNIT   21 AT END OF TIME STEP   6, STRESS PERIOD    3

 DRAWDOWN WILL BE SAVED ON UNIT   22 AT END OF TIME STEP   6, STRESS PERIOD    3
1
  VOLUMETRIC BUDGET FOR ENTIRE MODEL AT END OF TIME STEP  6 IN STRESS PERIOD   3
  ------------------------------------------------------------------------------

     CUMULATIVE VOLUMES      L**3       RATES FOR THIS TIME STEP      L**3/T
     ------------------                 ------------------------

           IN:                                      IN:
           ---                                      ---
             STORAGE =     4554180.0000               STORAGE =        5470.8574
       CONSTANT HEAD =           0.0000         CONSTANT HEAD =           0.0000
               WELLS =    21948000.0000                 WELLS =       30000.0000
    INST. IB STORAGE =     8593668.0000      INST. IB STORAGE =        9660.9316
    DELAY IB STORAGE =     8306640.0000      DELAY IB STORAGE =       13745.3516

            TOTAL IN =    43402488.0000              TOTAL IN =       58877.1406

          OUT:                                     OUT:
          ----                                     ----
             STORAGE =           0.0000               STORAGE =           0.0000
       CONSTANT HEAD =    21484398.0000         CONSTANT HEAD =       28877.2109
               WELLS =    21918000.0000                 WELLS =       30000.0000
    INST. IB STORAGE =           0.0000      INST. IB STORAGE =           0.0000
    DELAY IB STORAGE =           0.0000      DELAY IB STORAGE =           0.0000

           TOTAL OUT =    43402400.0000             TOTAL OUT =       58877.2109

            IN - OUT =          88.0000              IN - OUT =      -7.0312E-02

 PERCENT DISCREPANCY =           0.00     PERCENT DISCREPANCY =           0.00






          TIME SUMMARY AT END OF TIME STEP   6 IN STRESS PERIOD    3
                    SECONDS     MINUTES      HOURS       DAYS        YEARS
                    -----------------------------------------------------------
   TIME STEP LENGTH 9.18681E+06 1.53113E+05  2551.9      106.33     0.29111    
 STRESS PERIOD TIME 3.15619E+07 5.26032E+05  8767.2      365.30      1.0001    
         TOTAL TIME 6.32102E+07 1.05350E+06  17558.      731.60      2.0030    
1

                               VOLUMETRIC BUDGET FOR SYSTEMS OF DELAY INTERBEDS
                                          AT END OF TIME STEP  6 IN STRESS PERIOD  3

          |   C U M U L A T I V E   V O L U M E S   L**3           | R A T E S   F O R  T H I S  T I M E  S T E P   L**3/T  |
   SYSTEM |    CHANGE IN     BOUNDARY                    PERCENT   |    CHANGE IN     BOUNDARY                    PERCENT   |
   NUMBER |     STORAGE        FLOW           SUM      DISCREPANCY |     STORAGE        FLOW           SUM      DISCREPANCY |
  --------|--------------------------------------------------------|--------------------------------------------------------|
      1     7617.3        -7617.3        0.14648E-02    0.19231E-04     12.257        -12.257        0.95367E-06    0.77807E-05
      2    0.82990E+07   -0.82990E+07   -0.50000       -0.60248E-05     13733.        -13733.         0.0000         0.0000    
  --------|--------------------------------------------------------|--------------------------------------------------------|
 TOTALS:    0.83066E+07   -0.83066E+07   -0.50000       -0.60193E-05     13745.        -13745.         0.0000         0.0000    
1
                            STRESS PERIOD NO.    4, LENGTH =   365.3000    
                            -----------------------------------------------

                              NUMBER OF TIME STEPS =     6

                               MULTIPLIER FOR DELT =     1.300

                            INITIAL TIME STEP SIZE =   28.63744    

 REUSING NON-PARAMETER WELLS FROM LAST STRESS PERIOD

     14 WELLS
 
 SOLVING FOR HEAD 

    29 ITERATIONS FOR TIME STEP   1 IN STRESS PERIOD    4

 OUTPUT CONTROL FOR STRESS PERIOD    4   TIME STEP   1
    SAVE HEAD FOR ALL LAYERS

 HEAD WILL BE SAVED ON UNIT   21 AT END OF TIME STEP   1, STRESS PERIOD    4
 
 SOLVING FOR HEAD 
    29 ITERATIONS FOR TIME STEP   2 IN STRESS PERIOD    4

 OUTPUT CONTROL FOR STRESS PERIOD    4   TIME STEP   2
    SAVE HEAD FOR ALL LAYERS

 HEAD WILL BE SAVED ON UNIT   21 AT END OF TIME STEP   2, STRESS PERIOD    4
 
 SOLVING FOR HEAD 
    29 ITERATIONS FOR TIME STEP   3 IN STRESS PERIOD    4

 OUTPUT CONTROL FOR STRESS PERIOD    4   TIME STEP   3
    SAVE HEAD FOR ALL LAYERS

 HEAD WILL BE SAVED ON UNIT   21 AT END OF TIME STEP   3, STRESS PERIOD    4
 
 SOLVING FOR HEAD 
    29 ITERATIONS FOR TIME STEP   4 IN STRESS PERIOD    4

 OUTPUT CONTROL FOR STRESS PERIOD    4   TIME STEP   4
    SAVE HEAD FOR ALL LAYERS

 HEAD WILL BE SAVED ON UNIT   21 AT END OF TIME STEP   4, STRESS PERIOD    4
 
 SOLVING FOR HEAD 
    29 ITERATIONS FOR TIME STEP   5 IN STRESS PERIOD    4

 MAXIMUM HEAD CHANGE FOR EACH ITERATION:

    HEAD CHANGE   HEAD CHANGE   HEAD CHANGE   HEAD CHANGE   HEAD CHANGE
  LAYER,ROW,COL LAYER,ROW,COL LAYER,ROW,COL LAYER,ROW,COL LAYER,ROW,COL
 ----------------------------------------------------------------------
     0.6105        0.6700       -0.2614        -1.718         1.006    
  (  3,  3,  6) (  3,  1, 10) (  3,  3,  6) (  3,  1, 10) (  3,  1,  1)
     0.1230       -0.7308E-01   -0.5867E-01   -0.3477E-01   -0.2357E-01
  (  2,  7, 10) (  3,  3,  6) (  3,  3,  7) (  3,  3,  6) (  3,  3,  7)
    -0.1142E-01   -0.1594E-01   -0.1253E-01   -0.7380E-02   -0.5210E-02
  (  3,  3,  6) (  3,  3,  6) (  3,  3,  6) (  3,  3,  6) (  3,  3,  6)
    -0.2594E-02   -0.3446E-02   -0.2685E-02   -0.1673E-02   -0.1152E-02
  (  3,  3,  6) (  3,  3,  6) (  3,  3,  6) (  3,  3,  6) (  3,  3,  6)
    -0.6357E-03   -0.7605E-03   -0.6141E-03   -0.3818E-03   -0.2737E-03
  (  3,  3,  6) (  3,  3,  6) (  3,  3,  6) (  3,  3,  6) (  3,  3,  6)
    -0.1531E-03   -0.1393E-03   -0.1032E-03   -0.4469E-04
  (  3,  3,  6) (  3,  3,  6) (  3,  3,  6) (  3,  3,  6)


 OUTPUT CONTROL FOR STRESS PERIOD    4   TIME STEP   5
    SAVE HEAD FOR ALL LAYERS

 HEAD WILL BE SAVED ON UNIT   21 AT END OF TIME STEP   5, STRESS PERIOD    4
 
 SOLVING FOR HEAD 
    27 ITERATIONS FOR TIME STEP   6 IN STRESS PERIOD    4

 MAXIMUM HEAD CHANGE FOR EACH ITERATION:

    HEAD CHANGE   HEAD CHANGE   HEAD CHANGE   HEAD CHANGE   HEAD CHANGE
  LAYER,ROW,COL LAYER,ROW,COL LAYER,ROW,COL LAYER,ROW,COL LAYER,ROW,COL
 ----------------------------------------------------------------------
     0.3613        0.1859       -0.5241        0.2583       -0.6840E-01
  (  3,  3,  6) (  3,  2, 10) (  3,  2,  6) (  3,  1,  1) (  3,  3,  7)
    -0.3493E-01   -0.5794E-01   -0.4862E-01   -0.2652E-01   -0.1737E-01
  (  3,  3,  7) (  3,  3,  7) (  3,  3,  7) (  3,  3,  6) (  3,  3,  7)
    -0.9478E-02   -0.1149E-01   -0.9577E-02   -0.5400E-02   -0.3676E-02
  (  2,  8,  1) (  3,  3,  7) (  3,  3,  6) (  3,  3,  7) (  3,  3,  6)
    -0.1720E-02   -0.2370E-02   -0.1977E-02   -0.1201E-02   -0.7925E-03
  (  3,  3,  6) (  3,  3,  6) (  3,  3,  7) (  3,  3,  6) (  3,  3,  6)
    -0.4293E-03   -0.5119E-03   -0.4506E-03   -0.2757E-03   -0.1936E-03
  (  3,  3,  6) (  3,  3,  6) (  3,  3,  6) (  3,  3,  6) (  3,  3,  6)
    -0.1014E-03   -0.6855E-04
  (  3,  3,  6) (  3,  3,  6)


 OUTPUT CONTROL FOR STRESS PERIOD    4   TIME STEP   6
    PRINT BUDGET
    PRINT HEAD FOR ALL LAYERS
    SAVE HEAD FOR ALL LAYERS
    SAVE DRAWDOWN FOR ALL LAYERS
1
              HEAD IN LAYER   1 AT END OF TIME STEP   6 IN STRESS PERIOD    4
  ---------------------------------------------------------------------------

           1       2       3       4       5       6       7       8       9      10
 ...................................................................................
   1    22.34   22.00   21.34   20.92   20.72   20.72   20.92   21.34   21.99   22.34
   2    21.31   20.81   20.39   20.10   19.94   19.94   20.09   20.38   20.80   21.30
   3    19.80   19.31   18.95   18.70   18.58   18.58   18.70   18.94   19.30   19.79
   4    17.74   17.31   17.01   16.83   16.73   16.73   16.82   17.01   17.30   17.73
   5    14.82   14.73   14.63   14.55   14.50   14.50   14.54   14.62   14.73   14.81
   6    12.19   12.16   12.12   12.08   12.06   12.06   12.08   12.12   12.16   12.18
   7     9.61    9.59    9.55    9.51    9.49    9.49    9.51    9.55    9.58    9.61
   8     7.07    7.01    6.91    6.81    6.75    6.75    6.81    6.91    7.01    7.07
   9     4.70    4.53    4.22    3.87    3.72    3.72    3.87    4.22    4.53    4.70
  10     2.99    2.55    1.62    0.00    0.00    0.00    0.00    1.62    2.55    2.99
1
              HEAD IN LAYER   2 AT END OF TIME STEP   6 IN STRESS PERIOD    4
  ---------------------------------------------------------------------------

           1       2       3       4       5       6       7       8       9      10
 ...................................................................................
   1     3.30    3.34    3.36    3.37    3.37    3.36    3.33    3.30    3.26    3.21
   2     3.08    4.90    4.76    4.33    3.88    3.55    3.61    3.94    4.15    2.93
   3     2.79    4.15    3.82    3.07    1.97    0.45    0.87    2.19    2.99    2.60
   4     2.44    3.45    3.18    2.64    1.93    1.13    1.30    2.01    2.52    2.25
   5     2.06    2.69    2.60    2.36    2.11    1.91    1.91    2.05    2.17    1.88
   6     1.65    1.90    1.86    1.76    1.67    1.60    1.59    1.61    1.63    1.49
   7     1.23    1.00    0.93    0.87    0.83    0.80    0.80    0.81    0.87    1.10
   8     0.81    0.00   -0.18   -0.25   -0.29   -0.30   -0.28   -0.23   -0.07    0.72
   9     0.42   -0.99   -1.33   -1.51   -1.59   -1.60   -1.53   -1.36   -1.02    0.36
  10     0.08    0.00   -0.06   -0.10   -0.13   -0.13   -0.11   -0.07   -0.02    0.05
1
              HEAD IN LAYER   3 AT END OF TIME STEP   6 IN STRESS PERIOD    4
  ---------------------------------------------------------------------------

           1       2       3       4       5       6       7       8       9      10
 ...................................................................................
   1    -9.89  -10.03  -10.29  -10.63  -10.99  -11.27  -11.37  -11.33  -11.23  -11.16
   2   -10.13  -10.35  -10.79  -11.44  -12.21  -12.91  -12.93  -12.50  -12.08  -11.84
   3   -10.29  -10.64  -11.39  -12.68  -14.79  -18.30  -17.39  -14.69  -13.23  -12.58
   4    -9.87  -10.15  -10.73  -11.66  -12.99  -14.77  -14.45  -13.09  -12.22  -11.79
   5    -9.07   -9.22   -9.51   -9.91  -10.38  -10.77  -10.82  -10.61  -10.38  -10.25
   6    -8.28   -8.34   -8.47   -8.63   -8.80   -8.93   -8.98   -8.97   -8.93   -8.90
   7    -7.67   -7.70   -7.75   -7.82   -7.88   -7.94   -7.97   -7.99   -7.99   -7.98
   8    -7.29   -7.30   -7.32   -7.35   -7.38   -7.40   -7.42   -7.43   -7.43   -7.43
   9    -7.08   -7.09   -7.10   -7.11   -7.12   -7.13   -7.14   -7.14   -7.15   -7.14
  10    -7.00   -7.00   -7.01   -7.01   -7.02   -7.02   -7.03   -7.03   -7.03   -7.03

 HEAD WILL BE SAVED ON UNIT   21 AT END OF TIME STEP   6, STRESS PERIOD    4

 DRAWDOWN WILL BE SAVED ON UNIT   22 AT END OF TIME STEP   6, STRESS PERIOD    4
1
  VOLUMETRIC BUDGET FOR ENTIRE MODEL AT END OF TIME STEP  6 IN STRESS PERIOD   4
  ------------------------------------------------------------------------------

     CUMULATIVE VOLUMES      L**3       RATES FOR THIS TIME STEP      L**3/T
     ------------------                 ------------------------

           IN:                                      IN:
           ---                                      ---
             STORAGE =     6506245.5000               STORAGE =        5275.6299
       CONSTANT HEAD =         357.6057         CONSTANT HEAD =           2.8098
               WELLS =    32907002.0000                 WELLS =       30000.0000
    INST. IB STORAGE =    11695770.0000      INST. IB STORAGE =        7943.7236
    DELAY IB STORAGE =    13713861.0000      DELAY IB STORAGE =       15268.4346

            TOTAL IN =    64823236.0000              TOTAL IN =       58490.5977

          OUT:                                     OUT:
          ----                                     ----
             STORAGE =           0.0000               STORAGE =           0.0000
       CONSTANT HEAD =    31946168.0000         CONSTANT HEAD =       28490.8008
               WELLS =    32877002.0000                 WELLS =       30000.0000
    INST. IB STORAGE =           0.0000      INST. IB STORAGE =           0.0000
    DELAY IB STORAGE =           0.0000      DELAY IB STORAGE =           0.0000

           TOTAL OUT =    64823168.0000             TOTAL OUT =       58490.8008

            IN - OUT =          68.0000              IN - OUT =          -0.2031

 PERCENT DISCREPANCY =           0.00     PERCENT DISCREPANCY =           0.00






          TIME SUMMARY AT END OF TIME STEP   6 IN STRESS PERIOD    4
                    SECONDS     MINUTES      HOURS       DAYS        YEARS
                    -----------------------------------------------------------
   TIME STEP LENGTH 9.18681E+06 1.53113E+05  2551.9      106.33     0.29111    
 STRESS PERIOD TIME 3.15619E+07 5.26032E+05  8767.2      365.30      1.0001    
         TOTAL TIME 9.47722E+07 1.57954E+06  26326.      1096.9      3.0031    
1

                               VOLUMETRIC BUDGET FOR SYSTEMS OF DELAY INTERBEDS
                                          AT END OF TIME STEP  6 IN STRESS PERIOD  4

          |   C U M U L A T I V E   V O L U M E S   L**3           | R A T E S   F O R  T H I S  T I M E  S T E P   L**3/T  |
   SYSTEM |    CHANGE IN     BOUNDARY                    PERCENT   |    CHANGE IN     BOUNDARY                    PERCENT   |
   NUMBER |     STORAGE        FLOW           SUM      DISCREPANCY |     STORAGE        FLOW           SUM      DISCREPANCY |
  --------|--------------------------------------------------------|--------------------------------------------------------|
      1     12875.        -12875.       -0.97656E-03   -0.75849E-05     11.617        -11.617       -0.95367E-06   -0.82090E-05
      2    0.13701E+08   -0.13701E+08    -2.0000       -0.14597E-04     15257.        -15257.       -0.19531E-02   -0.12802E-04
  --------|--------------------------------------------------------|--------------------------------------------------------|
 TOTALS:    0.13714E+08   -0.13714E+08    -2.0000       -0.14584E-04     15268.        -15268.       -0.19531E-02   -0.12792E-04
1
                            STRESS PERIOD NO.    5, LENGTH =   365.3000    
                            -----------------------------------------------

                              NUMBER OF TIME STEPS =     6

                               MULTIPLIER FOR DELT =     1.300

                            INITIAL TIME STEP SIZE =   28.63744    

 REUSING NON-PARAMETER WELLS FROM LAST STRESS PERIOD

     14 WELLS
 
 SOLVING FOR HEAD 

    33 ITERATIONS FOR TIME STEP   1 IN STRESS PERIOD    5

 OUTPUT CONTROL FOR STRESS PERIOD    5   TIME STEP   1
    SAVE HEAD FOR ALL LAYERS

 HEAD WILL BE SAVED ON UNIT   21 AT END OF TIME STEP   1, STRESS PERIOD    5
 
 SOLVING FOR HEAD 
    31 ITERATIONS FOR TIME STEP   2 IN STRESS PERIOD    5

 OUTPUT CONTROL FOR STRESS PERIOD    5   TIME STEP   2
    SAVE HEAD FOR ALL LAYERS

 HEAD WILL BE SAVED ON UNIT   21 AT END OF TIME STEP   2, STRESS PERIOD    5
 
 SOLVING FOR HEAD 
    29 ITERATIONS FOR TIME STEP   3 IN STRESS PERIOD    5

 OUTPUT CONTROL FOR STRESS PERIOD    5   TIME STEP   3
    SAVE HEAD FOR ALL LAYERS

 HEAD WILL BE SAVED ON UNIT   21 AT END OF TIME STEP   3, STRESS PERIOD    5
 
 SOLVING FOR HEAD 
    28 ITERATIONS FOR TIME STEP   4 IN STRESS PERIOD    5

 OUTPUT CONTROL FOR STRESS PERIOD    5   TIME STEP   4
    SAVE HEAD FOR ALL LAYERS

 HEAD WILL BE SAVED ON UNIT   21 AT END OF TIME STEP   4, STRESS PERIOD    5
 
 SOLVING FOR HEAD 
    28 ITERATIONS FOR TIME STEP   5 IN STRESS PERIOD    5

 MAXIMUM HEAD CHANGE FOR EACH ITERATION:

    HEAD CHANGE   HEAD CHANGE   HEAD CHANGE   HEAD CHANGE   HEAD CHANGE
  LAYER,ROW,COL LAYER,ROW,COL LAYER,ROW,COL LAYER,ROW,COL LAYER,ROW,COL
 ----------------------------------------------------------------------
     0.6954         1.151        0.4694        -1.747       -0.8148    
  (  3,  3,  7) (  3,  1, 10) (  3,  2,  1) (  3,  1, 10) (  3,  1,  6)
     0.4670        0.1678        0.3421E-01   -0.3228E-01   -0.2154E-01
  (  3,  1, 10) (  3,  2,  3) (  2,  1,  9) (  3,  3,  6) (  3,  3,  7)
     0.1207E-01   -0.1339E-01   -0.1060E-01   -0.6143E-02   -0.4410E-02
  (  2,  6,  1) (  3,  3,  7) (  3,  3,  6) (  3,  3,  6) (  3,  3,  6)
    -0.2146E-02   -0.2911E-02   -0.2235E-02   -0.1417E-02   -0.9529E-03
  (  3,  3,  6) (  3,  3,  6) (  3,  3,  6) (  3,  3,  6) (  3,  3,  6)
    -0.5343E-03   -0.6383E-03   -0.5191E-03   -0.3144E-03   -0.2309E-03
  (  3,  3,  6) (  3,  3,  6) (  3,  3,  6) (  3,  3,  6) (  3,  3,  6)
    -0.1255E-03   -0.1038E-03   -0.5557E-04
  (  3,  3,  6) (  3,  3,  6) (  3,  3,  6)


 OUTPUT CONTROL FOR STRESS PERIOD    5   TIME STEP   5
    SAVE HEAD FOR ALL LAYERS

 HEAD WILL BE SAVED ON UNIT   21 AT END OF TIME STEP   5, STRESS PERIOD    5
 
 SOLVING FOR HEAD 
    26 ITERATIONS FOR TIME STEP   6 IN STRESS PERIOD    5

 MAXIMUM HEAD CHANGE FOR EACH ITERATION:

    HEAD CHANGE   HEAD CHANGE   HEAD CHANGE   HEAD CHANGE   HEAD CHANGE
  LAYER,ROW,COL LAYER,ROW,COL LAYER,ROW,COL LAYER,ROW,COL LAYER,ROW,COL
 ----------------------------------------------------------------------
     0.4273        0.5945       -0.1745        -1.489        0.7374    
  (  3,  3,  7) (  3,  1, 10) (  3,  1, 10) (  3,  1, 10) (  3,  1,  2)
     0.9257E-01   -0.6469E-01   -0.5618E-01   -0.2994E-01   -0.1927E-01
  (  2,  8, 10) (  3,  3,  7) (  3,  3,  7) (  3,  3,  6) (  3,  3,  7)
    -0.7843E-02   -0.1275E-01   -0.1067E-01   -0.5823E-02   -0.3830E-02
  (  3,  3,  6) (  3,  3,  7) (  3,  3,  6) (  3,  3,  7) (  3,  3,  6)
    -0.1673E-02   -0.2498E-02   -0.2098E-02   -0.1203E-02   -0.7921E-03
  (  3,  3,  6) (  3,  3,  6) (  3,  3,  6) (  3,  3,  6) (  3,  3,  6)
    -0.3901E-03   -0.5034E-03   -0.4407E-03   -0.2637E-03   -0.1763E-03
  (  3,  3,  6) (  3,  3,  6) (  3,  3,  6) (  3,  3,  6) (  3,  3,  6)
    -0.8776E-04
  (  3,  3,  6)


 OUTPUT CONTROL FOR STRESS PERIOD    5   TIME STEP   6
    PRINT BUDGET
    PRINT HEAD FOR ALL LAYERS
    SAVE HEAD FOR ALL LAYERS
    SAVE DRAWDOWN FOR ALL LAYERS
1
              HEAD IN LAYER   1 AT END OF TIME STEP   6 IN STRESS PERIOD    5
  ---------------------------------------------------------------------------

           1       2       3       4       5       6       7       8       9      10
 ...................................................................................
   1    22.22   21.87   21.22   20.80   20.60   20.60   20.80   21.21   21.87   22.21
   2    21.18   20.69   20.27   19.97   19.82   19.82   19.97   20.26   20.68   21.18
   3    19.68   19.19   18.82   18.58   18.46   18.45   18.57   18.82   19.18   19.67
   4    17.62   17.19   16.90   16.71   16.61   16.61   16.70   16.89   17.18   17.61
   5    14.71   14.62   14.52   14.44   14.39   14.39   14.43   14.51   14.61   14.70
   6    12.09   12.06   12.02   11.98   11.96   11.96   11.98   12.02   12.05   12.08
   7     9.52    9.50    9.46    9.42    9.40    9.40    9.42    9.46    9.49    9.52
   8     7.00    6.94    6.84    6.74    6.69    6.69    6.74    6.84    6.94    7.00
   9     4.65    4.48    4.17    3.83    3.68    3.68    3.83    4.17    4.48    4.65
  10     2.95    2.52    1.60    0.00    0.00    0.00    0.00    1.60    2.52    2.95
1
              HEAD IN LAYER   2 AT END OF TIME STEP   6 IN STRESS PERIOD    5
  ---------------------------------------------------------------------------

           1       2       3       4       5       6       7       8       9      10
 ...................................................................................
   1     2.80    2.83    2.85    2.86    2.85    2.84    2.82    2.79    2.75    2.70
   2     2.59    4.30    4.14    3.70    3.24    2.90    2.95    3.28    3.51    2.43
   3     2.32    3.57    3.22    2.45    1.34   -0.19    0.22    1.54    2.37    2.13
   4     2.00    2.92    2.63    2.08    1.36    0.55    0.71    1.42    1.95    1.80
   5     1.64    2.23    2.13    1.88    1.62    1.42    1.41    1.55    1.67    1.45
   6     1.26    1.52    1.48    1.38    1.27    1.20    1.18    1.20    1.22    1.10
   7     0.87    0.70    0.63    0.57    0.53    0.50    0.49    0.50    0.54    0.74
   8     0.49   -0.23   -0.39   -0.46   -0.51   -0.52   -0.51   -0.46   -0.31    0.39
   9     0.12   -1.16   -1.49   -1.66   -1.74   -1.75   -1.68   -1.52   -1.21    0.05
  10    -0.20   -0.27   -0.33   -0.38   -0.40   -0.40   -0.39   -0.35   -0.30   -0.24
1
              HEAD IN LAYER   3 AT END OF TIME STEP   6 IN STRESS PERIOD    5
  ---------------------------------------------------------------------------

           1       2       3       4       5       6       7       8       9      10
 ...................................................................................
   1   -10.99  -11.13  -11.41  -11.77  -12.14  -12.44  -12.56  -12.52  -12.43  -12.36
   2   -11.21  -11.44  -11.90  -12.56  -13.36  -14.07  -14.11  -13.68  -13.27  -13.03
   3   -11.32  -11.68  -12.45  -13.76  -15.90  -19.43  -18.54  -15.84  -14.38  -13.73
   4   -10.81  -11.09  -11.69  -12.64  -13.99  -15.79  -15.49  -14.14  -13.26  -12.83
   5    -9.87  -10.02  -10.32  -10.75  -11.23  -11.63  -11.69  -11.49  -11.26  -11.13
   6    -8.92   -8.99   -9.12   -9.29   -9.47   -9.62   -9.68   -9.67   -9.63   -9.61
   7    -8.16   -8.19   -8.25   -8.32   -8.39   -8.46   -8.50   -8.51   -8.52   -8.52
   8    -7.64   -7.65   -7.68   -7.71   -7.74   -7.77   -7.79   -7.81   -7.81   -7.82
   9    -7.32   -7.33   -7.34   -7.36   -7.38   -7.39   -7.40   -7.41   -7.41   -7.41
  10    -7.17   -7.18   -7.18   -7.19   -7.20   -7.21   -7.22   -7.23   -7.23   -7.23

 HEAD WILL BE SAVED ON UNIT   21 AT END OF TIME STEP   6, STRESS PERIOD    5

 DRAWDOWN WILL BE SAVED ON UNIT   22 AT END OF TIME STEP   6, STRESS PERIOD    5
1
  VOLUMETRIC BUDGET FOR ENTIRE MODEL AT END OF TIME STEP  6 IN STRESS PERIOD   5
  ------------------------------------------------------------------------------

     CUMULATIVE VOLUMES      L**3       RATES FOR THIS TIME STEP      L**3/T
     ------------------                 ------------------------

           IN:                                      IN:
           ---                                      ---
             STORAGE =     8397258.0000               STORAGE =        5118.9404
       CONSTANT HEAD =        2825.6111         CONSTANT HEAD =           9.3811
               WELLS =    43866000.0000                 WELLS =       30000.0000
    INST. IB STORAGE =    14360654.0000      INST. IB STORAGE =        6979.0742
    DELAY IB STORAGE =    19490648.0000      DELAY IB STORAGE =       16056.4795

            TOTAL IN =    86117384.0000              TOTAL IN =       58163.8750

          OUT:                                     OUT:
          ----                                     ----
             STORAGE =           0.0000               STORAGE =           0.0000
       CONSTANT HEAD =    42281316.0000         CONSTANT HEAD =       28164.2852
               WELLS =    43836000.0000                 WELLS =       30000.0000
    INST. IB STORAGE =           0.0000      INST. IB STORAGE =           0.0000
    DELAY IB STORAGE =          41.0256      DELAY IB STORAGE =           0.0000

           TOTAL OUT =    86117360.0000             TOTAL OUT =       58164.2852

            IN - OUT =          24.0000              IN - OUT =          -0.4102

 PERCENT DISCREPANCY =           0.00     PERCENT DISCREPANCY =           0.00






          TIME SUMMARY AT END OF TIME STEP   6 IN STRESS PERIOD    5
                    SECONDS     MINUTES      HOURS       DAYS        YEARS
                    -----------------------------------------------------------
   TIME STEP LENGTH 9.18681E+06 1.53113E+05  2551.9      106.33     0.29111    
 STRESS PERIOD TIME 3.15619E+07 5.26032E+05  8767.2      365.30      1.0001    
         TOTAL TIME 1.26334E+08 2.10557E+06  35093.      1462.2      4.0033    
1

                               VOLUMETRIC BUDGET FOR SYSTEMS OF DELAY INTERBEDS
                                          AT END OF TIME STEP  6 IN STRESS PERIOD  5

          |   C U M U L A T I V E   V O L U M E S   L**3           | R A T E S   F O R  T H I S  T I M E  S T E P   L**3/T  |
   SYSTEM |    CHANGE IN     BOUNDARY                    PERCENT   |    CHANGE IN     BOUNDARY                    PERCENT   |
   NUMBER |     STORAGE        FLOW           SUM      DISCREPANCY |     STORAGE        FLOW           SUM      DISCREPANCY |
  --------|--------------------------------------------------------|--------------------------------------------------------|
      1     18041.        -18041.       -0.19531E-02   -0.10826E-04     11.488        -11.488        0.19073E-05    0.16604E-04
      2    0.19473E+08   -0.19473E+08    -2.0000       -0.10271E-04     16045.        -16045.       -0.19531E-02   -0.12173E-04
  --------|--------------------------------------------------------|--------------------------------------------------------|
 TOTALS:    0.19491E+08   -0.19491E+08    -2.0000       -0.10261E-04     16056.        -16056.       -0.19531E-02   -0.12164E-04
1
                            STRESS PERIOD NO.    6, LENGTH =   365.3000    
                            -----------------------------------------------

                              NUMBER OF TIME STEPS =     6

                               MULTIPLIER FOR DELT =     1.300

                            INITIAL TIME STEP SIZE =   28.63744    

 REUSING NON-PARAMETER WELLS FROM LAST STRESS PERIOD

     14 WELLS
 
 SOLVING FOR HEAD 

    35 ITERATIONS FOR TIME STEP   1 IN STRESS PERIOD    6

 OUTPUT CONTROL FOR STRESS PERIOD    6   TIME STEP   1
    SAVE HEAD FOR ALL LAYERS

 HEAD WILL BE SAVED ON UNIT   21 AT END OF TIME STEP   1, STRESS PERIOD    6
 
 SOLVING FOR HEAD 
    34 ITERATIONS FOR TIME STEP   2 IN STRESS PERIOD    6

 OUTPUT CONTROL FOR STRESS PERIOD    6   TIME STEP   2
    SAVE HEAD FOR ALL LAYERS

 HEAD WILL BE SAVED ON UNIT   21 AT END OF TIME STEP   2, STRESS PERIOD    6
 
 SOLVING FOR HEAD 
    30 ITERATIONS FOR TIME STEP   3 IN STRESS PERIOD    6

 OUTPUT CONTROL FOR STRESS PERIOD    6   TIME STEP   3
    SAVE HEAD FOR ALL LAYERS

 HEAD WILL BE SAVED ON UNIT   21 AT END OF TIME STEP   3, STRESS PERIOD    6
 
 SOLVING FOR HEAD 
    28 ITERATIONS FOR TIME STEP   4 IN STRESS PERIOD    6

 OUTPUT CONTROL FOR STRESS PERIOD    6   TIME STEP   4
    SAVE HEAD FOR ALL LAYERS

 HEAD WILL BE SAVED ON UNIT   21 AT END OF TIME STEP   4, STRESS PERIOD    6
 
 SOLVING FOR HEAD 
    27 ITERATIONS FOR TIME STEP   5 IN STRESS PERIOD    6

 MAXIMUM HEAD CHANGE FOR EACH ITERATION:

    HEAD CHANGE   HEAD CHANGE   HEAD CHANGE   HEAD CHANGE   HEAD CHANGE
  LAYER,ROW,COL LAYER,ROW,COL LAYER,ROW,COL LAYER,ROW,COL LAYER,ROW,COL
 ----------------------------------------------------------------------
     0.6785         1.466        0.7980        -1.580        -1.992    
  (  3,  3,  6) (  3,  1, 10) (  3,  1,  1) (  3,  1, 10) (  3,  1,  1)
     0.6876        0.3637        0.9332E-01   -0.3299E-01   -0.2569E-01
  (  3,  1, 10) (  3,  2,  2) (  2,  1,  9) (  3,  3,  6) (  2, 10, 10)
     0.2838E-01   -0.1410E-01   -0.1105E-01   -0.6419E-02   -0.4370E-02
  (  2,  7,  1) (  3,  3,  6) (  3,  3,  6) (  3,  3,  6) (  3,  3,  6)
    -0.2060E-02   -0.2937E-02   -0.2308E-02   -0.1365E-02   -0.9422E-03
  (  3,  3,  6) (  3,  3,  6) (  3,  3,  6) (  3,  3,  6) (  3,  3,  6)
    -0.4731E-03   -0.6255E-03   -0.4966E-03   -0.3031E-03   -0.2079E-03
  (  3,  3,  6) (  3,  3,  6) (  3,  3,  6) (  3,  3,  6) (  3,  3,  6)
    -0.1094E-03   -0.8893E-04
  (  3,  3,  6) (  3,  3,  6)


 OUTPUT CONTROL FOR STRESS PERIOD    6   TIME STEP   5
    SAVE HEAD FOR ALL LAYERS

 HEAD WILL BE SAVED ON UNIT   21 AT END OF TIME STEP   5, STRESS PERIOD    6
 
 SOLVING FOR HEAD 
    26 ITERATIONS FOR TIME STEP   6 IN STRESS PERIOD    6

 MAXIMUM HEAD CHANGE FOR EACH ITERATION:

    HEAD CHANGE   HEAD CHANGE   HEAD CHANGE   HEAD CHANGE   HEAD CHANGE
  LAYER,ROW,COL LAYER,ROW,COL LAYER,ROW,COL LAYER,ROW,COL LAYER,ROW,COL
 ----------------------------------------------------------------------
     0.3741        0.7695        0.2111        -1.534        0.4161    
  (  3,  3,  7) (  3,  1, 10) (  3,  2,  1) (  3,  1, 10) (  3,  9, 10)
     0.6094E-01   -0.5794E-01   -0.5085E-01   -0.2322E-01   -0.1456E-01
  (  2,  3,  1) (  3,  3,  7) (  3,  3,  7) (  3,  3,  6) (  3,  3,  7)
    -0.1068E-01   -0.9617E-02   -0.8079E-02   -0.4417E-02   -0.2926E-02
  (  2,  7,  1) (  3,  3,  7) (  3,  3,  6) (  3,  3,  7) (  3,  3,  6)
    -0.1297E-02   -0.1900E-02   -0.1592E-02   -0.9267E-03   -0.6070E-03
  (  3,  3,  6) (  3,  3,  6) (  3,  3,  6) (  3,  3,  6) (  3,  3,  6)
    -0.3087E-03   -0.3785E-03   -0.3357E-03   -0.2049E-03   -0.1367E-03
  (  3,  3,  6) (  3,  3,  6) (  3,  3,  6) (  3,  3,  6) (  3,  3,  6)
    -0.6299E-04
  (  3,  3,  6)


 OUTPUT CONTROL FOR STRESS PERIOD    6   TIME STEP   6
    PRINT BUDGET
    PRINT HEAD FOR ALL LAYERS
    SAVE HEAD FOR ALL LAYERS
    SAVE DRAWDOWN FOR ALL LAYERS
1
              HEAD IN LAYER   1 AT END OF TIME STEP   6 IN STRESS PERIOD    6
  ---------------------------------------------------------------------------

           1       2       3       4       5       6       7       8       9      10
 ...................................................................................
   1    22.10   21.75   21.09   20.67   20.47   20.47   20.67   21.09   21.74   22.09
   2    21.06   20.56   20.14   19.85   19.69   19.69   19.84   20.14   20.56   21.05
   3    19.56   19.07   18.70   18.46   18.33   18.33   18.45   18.69   19.06   19.55
   4    17.51   17.08   16.78   16.59   16.50   16.49   16.58   16.77   17.07   17.50
   5    14.60   14.51   14.41   14.33   14.28   14.28   14.32   14.40   14.50   14.59
   6    11.99   11.96   11.92   11.88   11.86   11.86   11.88   11.92   11.96   11.98
   7     9.44    9.41    9.38    9.34    9.32    9.31    9.34    9.37    9.41    9.43
   8     6.93    6.87    6.78    6.68    6.62    6.62    6.68    6.78    6.87    6.93
   9     4.60    4.44    4.13    3.79    3.65    3.64    3.79    4.13    4.43    4.60
  10     2.92    2.50    1.58    0.00    0.00    0.00    0.00    1.58    2.50    2.92
1
              HEAD IN LAYER   2 AT END OF TIME STEP   6 IN STRESS PERIOD    6
  ---------------------------------------------------------------------------

           1       2       3       4       5       6       7       8       9      10
 ...................................................................................
   1     2.35    2.38    2.40    2.40    2.39    2.38    2.36    2.33    2.29    2.24
   2     2.16    3.78    3.60    3.15    2.68    2.33    2.38    2.71    2.96    1.99
   3     1.91    3.07    2.69    1.92    0.80   -0.74   -0.34    0.99    1.83    1.70
   4     1.60    2.46    2.15    1.59    0.87    0.04    0.20    0.91    1.46    1.39
   5     1.27    1.82    1.71    1.46    1.19    0.98    0.97    1.11    1.24    1.07
   6     0.91    1.17    1.13    1.02    0.92    0.84    0.82    0.84    0.86    0.74
   7     0.54    0.42    0.35    0.29    0.24    0.21    0.20    0.21    0.25    0.40
   8     0.18   -0.46   -0.61   -0.68   -0.73   -0.74   -0.73   -0.68   -0.55    0.07
   9    -0.17   -1.35   -1.66   -1.84   -1.92   -1.92   -1.86   -1.70   -1.40   -0.24
  10    -0.48   -0.55   -0.60   -0.64   -0.67   -0.67   -0.66   -0.62   -0.58   -0.52
1
[...]
  (  2,  3,  7) (  3,  1,  9) (  3,  1,  1) (  3, 10, 10) (  3,  1,  1)
     0.6735        0.3690        0.1262        0.1324       -0.6291E-01
  (  3,  1, 10) (  3,  9,  6) (  2,  1,  9) (  2, 10,  3) (  2, 10, 10)
     0.9629E-01    0.1605E-01   -0.6147E-02   -0.3298E-02   -0.2342E-02
  (  2,  7,  1) (  2,  1,  2) (  3,  7,  3) (  3,  7,  1) (  2, 10,  3)
    -0.1953E-02   -0.1475E-02   -0.1150E-02   -0.6250E-03   -0.4027E-03
  (  2,  6,  1) (  3,  7,  2) (  3,  7,  3) (  3,  7,  3) (  3,  7,  3)
    -0.1623E-03   -0.2769E-03   -0.2188E-03   -0.1169E-03   -0.6784E-04
  (  3,  7,  1) (  3,  7,  3) (  3,  7,  3) (  3,  7,  3) (  3,  7,  2)


 OUTPUT CONTROL FOR STRESS PERIOD   30   TIME STEP   5
    SAVE HEAD FOR ALL LAYERS

 HEAD WILL BE SAVED ON UNIT   21 AT END OF TIME STEP   5, STRESS PERIOD   30
 
 SOLVING FOR HEAD 
    25 ITERATIONS FOR TIME STEP   6 IN STRESS PERIOD   30

 MAXIMUM HEAD CHANGE FOR EACH ITERATION:

    HEAD CHANGE   HEAD CHANGE   HEAD CHANGE   HEAD CHANGE   HEAD CHANGE
  LAYER,ROW,COL LAYER,ROW,COL LAYER,ROW,COL LAYER,ROW,COL LAYER,ROW,COL
 ----------------------------------------------------------------------
    -0.5104        0.4922        0.3724       -0.9273       -0.9038    
  (  2,  4,  6) (  3,  1,  8) (  3,  3,  1) (  3, 10,  3) (  3,  1,  1)
     0.4327        0.2541        0.7095E-01    0.2401E-01   -0.2436E-01
  (  3,  1, 10) (  3,  2,  2) (  2,  1,  9) (  2, 10,  1) (  2, 10, 10)
     0.2419E-01   -0.9838E-02   -0.7875E-02   -0.4044E-02   -0.2411E-02
  (  2,  7,  1) (  3,  2,  7) (  3,  2,  4) (  3,  2,  7) (  3,  2,  7)
    -0.2128E-02   -0.1618E-02   -0.1377E-02   -0.6626E-03   -0.4278E-03
  (  2,  7,  1) (  3,  2,  6) (  3,  2,  6) (  3,  2,  6) (  3,  2,  7)
    -0.3084E-03   -0.2842E-03   -0.2247E-03   -0.1187E-03   -0.6378E-04
  (  2,  8,  1) (  3,  2,  7) (  3,  2,  6) (  3,  2,  7) (  3,  2,  7)


 OUTPUT CONTROL FOR STRESS PERIOD   30   TIME STEP   6
    PRINT BUDGET
    PRINT HEAD FOR ALL LAYERS
    SAVE HEAD FOR ALL LAYERS
    SAVE DRAWDOWN FOR ALL LAYERS
1
              HEAD IN LAYER   1 AT END OF TIME STEP   6 IN STRESS PERIOD   30
  ---------------------------------------------------------------------------

           1       2       3       4       5       6       7       8       9      10
 ...................................................................................
   1    19.74   19.39   18.71   18.29   18.08   18.08   18.28   18.71   19.38   19.73
   2    18.73   18.22   17.79   17.49   17.34   17.34   17.49   17.79   18.22   18.72
   3    17.30   16.81   16.43   16.18   16.06   16.05   16.18   16.42   16.80   17.29
   4    15.37   14.93   14.63   14.44   14.34   14.34   14.43   14.62   14.92   15.36
   5    12.62   12.53   12.43   12.35   12.30   12.30   12.34   12.42   12.52   12.61
   6    10.23   10.21   10.17   10.13   10.11   10.11   10.13   10.16   10.20   10.23
   7     7.96    7.94    7.91    7.87    7.85    7.85    7.87    7.90    7.94    7.96
   8     5.78    5.73    5.65    5.57    5.53    5.53    5.57    5.65    5.73    5.77
   9     3.79    3.65    3.41    3.13    3.01    3.01    3.13    3.40    3.65    3.79
  10     2.38    2.03    1.28    0.00    0.00    0.00    0.00    1.28    2.03    2.38
1
              HEAD IN LAYER   2 AT END OF TIME STEP   6 IN STRESS PERIOD   30
  ---------------------------------------------------------------------------

           1       2       3       4       5       6       7       8       9      10
 ...................................................................................
   1    -5.51   -5.51   -5.51   -5.52   -5.54   -5.56   -5.57   -5.59   -5.61   -5.64
   2    -5.58   -4.77   -5.09   -5.58   -6.07   -6.43   -6.40   -6.08   -5.72   -5.77
   3    -5.68   -5.27   -5.78   -6.56   -7.14   -8.05   -7.76   -7.09   -6.62   -5.92
   4    -5.81   -5.52   -5.93   -6.52   -7.02   -7.31   -7.24   -7.02   -6.63   -6.05
   5    -5.95   -5.69   -5.87   -6.14   -6.43   -6.65   -6.67   -6.55   -6.38   -6.18
   6    -6.11   -5.82   -5.88   -6.00   -6.11   -6.20   -6.24   -6.23   -6.21   -6.31
   7    -6.27   -6.06   -6.08   -6.14   -6.20   -6.24   -6.26   -6.26   -6.28   -6.44
   8    -6.45   -6.45   -6.50   -6.56   -6.61   -6.63   -6.63   -6.60   -6.57   -6.57
   9    -6.62   -6.96   -7.01   -7.03   -7.05   -7.05   -7.04   -7.02   -7.00   -6.71
  10    -6.79   -6.83   -6.86   -6.89   -6.90   -6.91   -6.90   -6.88   -6.86   -6.83
1
              HEAD IN LAYER   3 AT END OF TIME STEP   6 IN STRESS PERIOD   30
  ---------------------------------------------------------------------------

           1       2       3       4       5       6       7       8       9      10
 ...................................................................................
   1   -27.16  -27.33  -27.65  -28.07  -28.51  -28.87  -29.03  -29.03  -28.96  -28.90
   2   -27.17  -27.43  -27.94  -28.68  -29.55  -30.33  -30.41  -30.01  -29.61  -29.37
   3   -26.81  -27.20  -28.03  -29.44  -31.67  -35.29  -34.44  -31.74  -30.27  -29.62
   4   -25.56  -25.88  -26.53  -27.55  -28.98  -30.86  -30.59  -29.25  -28.38  -27.95
   5   -23.68  -23.86  -24.20  -24.67  -25.21  -25.67  -25.76  -25.58  -25.36  -25.23
   6   -21.72  -21.80  -21.96  -22.16  -22.38  -22.56  -22.65  -22.66  -22.63  -22.61
   7   -19.99  -20.03  -20.10  -20.19  -20.29  -20.37  -20.43  -20.47  -20.48  -20.49
   8   -18.64  -18.66  -18.70  -18.74  -18.79  -18.84  -18.87  -18.90  -18.92  -18.92
   9   -17.74  -17.75  -17.77  -17.79  -17.82  -17.85  -17.87  -17.89  -17.90  -17.90
  10   -17.28  -17.29  -17.30  -17.32  -17.34  -17.36  -17.37  -17.39  -17.40  -17.40

 HEAD WILL BE SAVED ON UNIT   21 AT END OF TIME STEP   6, STRESS PERIOD   30

 DRAWDOWN WILL BE SAVED ON UNIT   22 AT END OF TIME STEP   6, STRESS PERIOD   30
1
  VOLUMETRIC BUDGET FOR ENTIRE MODEL AT END OF TIME STEP  6 IN STRESS PERIOD  30
  ------------------------------------------------------------------------------

     CUMULATIVE VOLUMES      L**3       RATES FOR THIS TIME STEP      L**3/T
     ------------------                 ------------------------

           IN:                                      IN:
           ---                                      ---
             STORAGE =    43902764.0000               STORAGE =        3013.8257
       CONSTANT HEAD =      811704.8125         CONSTANT HEAD =         165.5598
               WELLS =   317840832.0000                 WELLS =       30000.0000
    INST. IB STORAGE =    63528752.0000      INST. IB STORAGE =        4942.1602
    DELAY IB STORAGE =   164291040.0000      DELAY IB STORAGE =       14667.3496

            TOTAL IN =   590375104.0000              TOTAL IN =       52788.8945

          OUT:                                     OUT:
          ----                                     ----
             STORAGE =           0.0000               STORAGE =           0.0000
       CONSTANT HEAD =   272564256.0000         CONSTANT HEAD =       22788.9609
               WELLS =   317810848.0000                 WELLS =       30000.0000
    INST. IB STORAGE =           0.0000      INST. IB STORAGE =           0.0000
    DELAY IB STORAGE =          41.0256      DELAY IB STORAGE =           0.0000

           TOTAL OUT =   590375168.0000             TOTAL OUT =       52788.9609

            IN - OUT =         -64.0000              IN - OUT =      -6.6406E-02

 PERCENT DISCREPANCY =           0.00     PERCENT DISCREPANCY =           0.00






          TIME SUMMARY AT END OF TIME STEP   6 IN STRESS PERIOD   30
                    SECONDS     MINUTES      HOURS       DAYS        YEARS
                    -----------------------------------------------------------
   TIME STEP LENGTH 9.18681E+06 1.53113E+05  2551.9      106.33     0.29111    
 STRESS PERIOD TIME 3.15619E+07 5.26032E+05  8767.2      365.30      1.0001    
         TOTAL TIME 9.15382E+08 1.52564E+07 2.54273E+05  10595.      29.007    
1

                               VOLUMETRIC BUDGET FOR SYSTEMS OF DELAY INTERBEDS
                                          AT END OF TIME STEP  6 IN STRESS PERIOD 30

          |   C U M U L A T I V E   V O L U M E S   L**3           | R A T E S   F O R  T H I S  T I M E  S T E P   L**3/T  |
   SYSTEM |    CHANGE IN     BOUNDARY                    PERCENT   |    CHANGE IN     BOUNDARY                    PERCENT   |
   NUMBER |     STORAGE        FLOW           SUM      DISCREPANCY |     STORAGE        FLOW           SUM      DISCREPANCY |
  --------|--------------------------------------------------------|--------------------------------------------------------|
      1    0.11225E+06   -0.11225E+06   -0.78125E-02   -0.69599E-05     7.1649        -7.1649       -0.19073E-05   -0.26621E-04
      2    0.16418E+09   -0.16418E+09     16.000        0.97455E-05     14660.        -14660.       -0.97656E-03   -0.66613E-05
  --------|--------------------------------------------------------|--------------------------------------------------------|
 TOTALS:    0.16429E+09   -0.16429E+09     16.000        0.97388E-05     14667.        -14667.       -0.97656E-03   -0.66581E-05
1
                            STRESS PERIOD NO.   31, LENGTH =   365.3000    
                            -----------------------------------------------

                              NUMBER OF TIME STEPS =     6

                               MULTIPLIER FOR DELT =     1.300

                            INITIAL TIME STEP SIZE =   28.63744    

 REUSING NON-PARAMETER WELLS FROM LAST STRESS PERIOD

     14 WELLS
 
 SOLVING FOR HEAD 

    36 ITERATIONS FOR TIME STEP   1 IN STRESS PERIOD   31

 OUTPUT CONTROL FOR STRESS PERIOD   31   TIME STEP   1
    SAVE HEAD FOR ALL LAYERS

 HEAD WILL BE SAVED ON UNIT   21 AT END OF TIME STEP   1, STRESS PERIOD   31
 
 SOLVING FOR HEAD 
    35 ITERATIONS FOR TIME STEP   2 IN STRESS PERIOD   31

 OUTPUT CONTROL FOR STRESS PERIOD   31   TIME STEP   2
    SAVE HEAD FOR ALL LAYERS

 HEAD WILL BE SAVED ON UNIT   21 AT END OF TIME STEP   2, STRESS PERIOD   31
 
 SOLVING FOR HEAD 
    35 ITERATIONS FOR TIME STEP   3 IN STRESS PERIOD   31

 OUTPUT CONTROL FOR STRESS PERIOD   31   TIME STEP   3
    SAVE HEAD FOR ALL LAYERS

 HEAD WILL BE SAVED ON UNIT   21 AT END OF TIME STEP   3, STRESS PERIOD   31
 
 SOLVING FOR HEAD 
    28 ITERATIONS FOR TIME STEP   4 IN STRESS PERIOD   31

 OUTPUT CONTROL FOR STRESS PERIOD   31   TIME STEP   4
    SAVE HEAD FOR ALL LAYERS

 HEAD WILL BE SAVED ON UNIT   21 AT END OF TIME STEP   4, STRESS PERIOD   31
 
 SOLVING FOR HEAD 
    25 ITERATIONS FOR TIME STEP   5 IN STRESS PERIOD   31

 MAXIMUM HEAD CHANGE FOR EACH ITERATION:

    HEAD CHANGE   HEAD CHANGE   HEAD CHANGE   HEAD CHANGE   HEAD CHANGE
  LAYER,ROW,COL LAYER,ROW,COL LAYER,ROW,COL LAYER,ROW,COL LAYER,ROW,COL
 ----------------------------------------------------------------------
    -0.8535        0.9816        0.9686       -0.8608        -2.298    
  (  2,  3,  6) (  3,  1, 10) (  3,  2,  1) (  3, 10, 10) (  3,  1,  1)
     0.6770        0.3949        0.1939        0.4586E-01    0.2775E-01
  (  3,  1, 10) (  3,  9,  3) (  2,  8,  5) (  2, 10,  1) (  2,  1,  1)
     0.7261E-01    0.1024E-01   -0.6169E-02   -0.3308E-02   -0.2179E-02
  (  2,  6,  1) (  2,  1,  2) (  3,  7,  3) (  3,  8,  1) (  3,  8,  2)
    -0.8671E-03   -0.1486E-02   -0.1159E-02   -0.6205E-03   -0.4052E-03
  (  3,  8,  1) (  3,  8,  3) (  3,  8,  3) (  3,  8,  3) (  3,  8,  2)
    -0.1635E-03   -0.2811E-03   -0.2168E-03   -0.1164E-03   -0.7048E-04
  (  3,  8,  1) (  3,  8,  2) (  3,  8,  3) (  3,  8,  2) (  3,  8,  2)


 OUTPUT CONTROL FOR STRESS PERIOD   31   TIME STEP   5
    SAVE HEAD FOR ALL LAYERS

 HEAD WILL BE SAVED ON UNIT   21 AT END OF TIME STEP   5, STRESS PERIOD   31
 
 SOLVING FOR HEAD 
    25 ITERATIONS FOR TIME STEP   6 IN STRESS PERIOD   31

 MAXIMUM HEAD CHANGE FOR EACH ITERATION:

    HEAD CHANGE   HEAD CHANGE   HEAD CHANGE   HEAD CHANGE   HEAD CHANGE
  LAYER,ROW,COL LAYER,ROW,COL LAYER,ROW,COL LAYER,ROW,COL LAYER,ROW,COL
 ----------------------------------------------------------------------
    -0.6278        0.5872        0.4195       -0.9296       -0.9169    
  (  2,  4,  6) (  2,  4,  6) (  3,  2,  1) (  3, 10,  3) (  3,  1,  1)
     0.4345        0.2566        0.1003       -0.2000E-01   -0.1533E-01
  (  3,  1, 10) (  3,  2,  2) (  2,  3,  9) (  3,  2,  1) (  2,  1, 10)
     0.2240E-01   -0.9790E-02   -0.7888E-02   -0.4012E-02   -0.2406E-02
  (  2,  7,  1) (  3,  2,  7) (  3,  2,  4) (  3,  2,  6) (  3,  2,  7)
    -0.1034E-02   -0.1606E-02   -0.1365E-02   -0.6627E-03   -0.4223E-03
  (  3,  1, 10) (  3,  2,  6) (  3,  2,  6) (  3,  2,  6) (  3,  2,  6)
    -0.1819E-03   -0.2807E-03   -0.2237E-03   -0.1173E-03   -0.6363E-04
  (  2,  9,  1) (  3,  2,  7) (  3,  2,  5) (  3,  2,  6) (  3,  2,  6)


 OUTPUT CONTROL FOR STRESS PERIOD   31   TIME STEP   6
    PRINT BUDGET
    PRINT HEAD FOR ALL LAYERS
    SAVE HEAD FOR ALL LAYERS
    SAVE DRAWDOWN FOR ALL LAYERS
1
              HEAD IN LAYER   1 AT END OF TIME STEP   6 IN STRESS PERIOD   31
  ---------------------------------------------------------------------------

           1       2       3       4       5       6       7       8       9      10
 ...................................................................................
   1    19.66   19.31   18.64   18.21   18.00   18.00   18.21   18.63   19.30   19.66
   2    18.66   18.15   17.72   17.42   17.26   17.26   17.41   17.71   18.14   18.65
   3    17.23   16.73   16.36   16.11   15.98   15.98   16.10   16.35   16.72   17.22
   4    15.30   14.86   14.56   14.37   14.27   14.27   14.36   14.55   14.85   15.29
   5    12.56   12.47   12.36   12.28   12.24   12.23   12.28   12.36   12.46   12.55
   6    10.18   10.15   10.11   10.07   10.05   10.05   10.07   10.11   10.14   10.17
   7     7.91    7.89    7.86    7.83    7.81    7.81    7.82    7.86    7.89    7.91
   8     5.74    5.69    5.62    5.54    5.49    5.49    5.53    5.61    5.69    5.74
   9     3.77    3.63    3.38    3.11    2.99    2.99    3.10    3.38    3.63    3.76
  10     2.36    2.02    1.27    0.00    0.00    0.00    0.00    1.27    2.01    2.36
1
              HEAD IN LAYER   2 AT END OF TIME STEP   6 IN STRESS PERIOD   31
  ---------------------------------------------------------------------------

           1       2       3       4       5       6       7       8       9      10
 ...................................................................................
   1    -5.77   -5.77   -5.77   -5.78   -5.80   -5.81   -5.83   -5.85   -5.87   -5.90
   2    -5.83   -5.06   -5.38   -5.87   -6.36   -6.72   -6.69   -6.37   -6.01   -6.02
   3    -5.93   -5.56   -6.07   -6.84   -7.25   -8.26   -7.96   -7.19   -6.89   -6.16
   4    -6.04   -5.80   -6.21   -6.78   -7.08   -7.46   -7.38   -7.08   -6.89   -6.29
   5    -6.18   -5.96   -6.14   -6.42   -6.70   -6.92   -6.94   -6.82   -6.64   -6.41
   6    -6.33   -6.09   -6.14   -6.26   -6.38   -6.47   -6.51   -6.49   -6.47   -6.53
   7    -6.48   -6.31   -6.34   -6.40   -6.45   -6.50   -6.52   -6.52   -6.53   -6.64
   8    -6.64   -6.69   -6.75   -6.81   -6.85   -6.87   -6.87   -6.85   -6.81   -6.77
   9    -6.81   -7.02   -7.05   -7.09   -7.11   -7.12   -7.10   -7.06   -7.03   -6.89
  10    -6.96   -6.99   -7.02   -7.04   -7.05   -7.06   -7.05   -7.04   -7.02   -7.00
1
              HEAD IN LAYER   3 AT END OF TIME STEP   6 IN STRESS PERIOD   31
  ---------------------------------------------------------------------------

           1       2       3       4       5       6       7       8       9      10
 ...................................................................................
   1   -27.67  -27.84  -28.16  -28.58  -29.02  -29.38  -29.54  -29.54  -29.47  -29.41
   2   -27.67  -27.93  -28.45  -29.18  -30.06  -30.84  -30.92  -30.52  -30.11  -29.88
   3   -27.31  -27.70  -28.53  -29.94  -32.17  -35.79  -34.94  -32.24  -30.77  -30.12
   4   -26.05  -26.37  -27.02  -28.04  -29.48  -31.35  -31.09  -29.75  -28.87  -28.44
   5   -24.17  -24.35  -24.69  -25.16  -25.70  -26.15  -26.24  -26.06  -25.85  -25.71
   6   -22.19  -22.28  -22.43  -22.64  -22.86  -23.03  -23.12  -23.13  -23.11  -23.09
   7   -20.46  -20.49  -20.57  -20.66  -20.76  -20.84  -20.90  -20.94  -20.95  -20.95
   8   -19.10  -19.12  -19.16  -19.20  -19.25  -19.30  -19.33  -19.36  -19.38  -19.38
   9   -18.19  -18.20  -18.22  -18.24  -18.27  -18.30  -18.32  -18.34  -18.35  -18.36
  10   -17.73  -17.74  -17.75  -17.77  -17.79  -17.81  -17.82  -17.84  -17.85  -17.85

 HEAD WILL BE SAVED ON UNIT   21 AT END OF TIME STEP   6, STRESS PERIOD   31

 DRAWDOWN WILL BE SAVED ON UNIT   22 AT END OF TIME STEP   6, STRESS PERIOD   31
1
  VOLUMETRIC BUDGET FOR ENTIRE MODEL AT END OF TIME STEP  6 IN STRESS PERIOD  31
  ------------------------------------------------------------------------------

     CUMULATIVE VOLUMES      L**3       RATES FOR THIS TIME STEP      L**3/T
     ------------------                 ------------------------

           IN:                                      IN:
           ---                                      ---
             STORAGE =    44989100.0000               STORAGE =        2946.8464
       CONSTANT HEAD =      873118.5000         CONSTANT HEAD =         169.2344
               WELLS =   328799808.0000                 WELLS =       30000.0000
    INST. IB STORAGE =    65337480.0000      INST. IB STORAGE =        4958.4927
    DELAY IB STORAGE =   169623776.0000      DELAY IB STORAGE =       14552.5352

            TOTAL IN =   609623296.0000              TOTAL IN =       52627.1094

          OUT:                                     OUT:
          ----                                     ----
             STORAGE =           0.0000               STORAGE =           0.0000
       CONSTANT HEAD =   280853440.0000         CONSTANT HEAD =       22627.1387
               WELLS =   328769824.0000                 WELLS =       30000.0000
    INST. IB STORAGE =           0.0000      INST. IB STORAGE =           0.0000
    DELAY IB STORAGE =          41.0256      DELAY IB STORAGE =           0.0000

           TOTAL OUT =   609623296.0000             TOTAL OUT =       52627.1406

            IN - OUT =           0.0000              IN - OUT =      -3.1250E-02

 PERCENT DISCREPANCY =           0.00     PERCENT DISCREPANCY =           0.00






          TIME SUMMARY AT END OF TIME STEP   6 IN STRESS PERIOD   31
                    SECONDS     MINUTES      HOURS       DAYS        YEARS
                    -----------------------------------------------------------
   TIME STEP LENGTH 9.18681E+06 1.53113E+05  2551.9      106.33     0.29111    
 STRESS PERIOD TIME 3.15619E+07 5.26032E+05  8767.2      365.30      1.0001    
         TOTAL TIME 9.46944E+08 1.57824E+07 2.63040E+05  10960.      30.007    
1

                               VOLUMETRIC BUDGET FOR SYSTEMS OF DELAY INTERBEDS
                                          AT END OF TIME STEP  6 IN STRESS PERIOD 31

          |   C U M U L A T I V E   V O L U M E S   L**3           | R A T E S   F O R  T H I S  T I M E  S T E P   L**3/T  |
   SYSTEM |    CHANGE IN     BOUNDARY                    PERCENT   |    CHANGE IN     BOUNDARY                    PERCENT   |
   NUMBER |     STORAGE        FLOW           SUM      DISCREPANCY |     STORAGE        FLOW           SUM      DISCREPANCY |
  --------|--------------------------------------------------------|--------------------------------------------------------|
      1    0.11512E+06   -0.11512E+06   -0.78125E-02   -0.67867E-05     7.0754        -7.0754       -0.47684E-06   -0.67393E-05
      2    0.16951E+09   -0.16951E+09     16.000        0.94390E-05     14545.        -14545.        0.97656E-03    0.67139E-05
  --------|--------------------------------------------------------|--------------------------------------------------------|
 TOTALS:    0.16962E+09   -0.16962E+09     16.000        0.94326E-05     14553.        -14553.        0.97656E-03    0.67106E-05
